Test_Systems/IEEE_8500_Bus-G/LineCode.dss
New "LineCode.1ph-x4_acsrx4_acsr" nphases=1 units=km rmatrix=[  1.67466000 ] xmatrix=[  0.93456000 ] cmatrix=[  6.32285000 ]
New "LineCode.1ph-xx4_acsr4_acsr" nphases=1 units=km rmatrix=[  1.67466000 ] xmatrix=[  0.93456000 ] cmatrix=[  6.32285000 ]
New "LineCode.1ph-x2_acsrx2_acsr" nphases=1 units=km rmatrix=[  1.12230000 ] xmatrix=[  0.89636500 ] cmatrix=[  6.49582000 ]
New "LineCode.1ph-x4_acsrx4_wpal" nphases=1 units=km rmatrix=[  1.67723000 ] xmatrix=[  0.93241100 ] cmatrix=[  6.32285000 ]
New "LineCode.3ph_h-4_acsr4_acsr4_acsr4_acsr" nphases=3 units=km rmatrix=[  1.68340000   0.13832400   0.14266900 |  0.13832400   1.67686000   0.13929400 |  0.14266900   0.13929400   1.68543000 ] xmatrix=[  0.92730000   0.43262300   0.41225300 |  0.43262300   0.93272800   0.45046900 |  0.41225300   0.45046900   0.92563700 ] cmatrix=[  7.60098000  -1.99751000  -1.66797000 | -1.99751000   7.88811000  -2.32489000 | -1.66797000  -2.32489000   7.78037000 ]
New "LineCode.3ph_h-2/0_acsr2/0_acsr2/0_acsr2_acsr" nphases=3 units=km rmatrix=[  0.66087000   0.13749900   0.14206600 |  0.13749900   0.65399900   0.13851800 |  0.14206600   0.13851800   0.66300700 ] xmatrix=[  0.86994700   0.38857900   0.36611500 |  0.38857900   0.87852800   0.40595300 |  0.36611500   0.40595300   0.86730000 ] cmatrix=[  8.34520000  -2.31601000  -1.91256000 | -2.31601000   8.72099000  -2.71715000 | -1.91256000  -2.71715000   8.57671000 ]
New "LineCode.1ph-4_wpalxx2_wpal" nphases=1 units=km rmatrix=[  1.63092000 ] xmatrix=[  0.86122100 ] cmatrix=[  6.32285000 ]
New "LineCode.3ph_h-4_acsr2_acsr2_acsr4_wpal" nphases=3 units=km rmatrix=[  1.68626000   0.14107800   0.14556600 |  0.14107800   1.12824000   0.14208000 |  0.14556600   0.14208000   1.13710000 ] xmatrix=[  0.92496600   0.43035900   0.40989800 |  0.43035900   0.93376500   0.44818500 |  0.40989800   0.44818500   0.92649500 ] cmatrix=[  7.63018000  -2.04889000  -1.70374000 | -2.04889000   8.18434000  -2.48649000 | -1.70374000  -2.48649000   8.06911000 ]
New "LineCode.1ph-4_acsrxx4_acsr" nphases=1 units=km rmatrix=[  1.67466000 ] xmatrix=[  0.93456000 ] cmatrix=[  6.32285000 ]
New "LineCode.3ph_h-4_acsr4_acsr4_acsr4_wpal" nphases=3 units=km rmatrix=[  1.68626000   0.14107800   0.14556600 |  0.14107800   1.67950000   0.14208000 |  0.14556600   0.14208000   1.68836000 ] xmatrix=[  0.92496600   0.43035900   0.40989800 |  0.43035900   0.93053100   0.44818500 |  0.40989800   0.44818500   0.92326100 ] cmatrix=[  7.60098000  -1.99751000  -1.66797000 | -1.99751000   7.88811000  -2.32489000 | -1.66797000  -2.32489000   7.78037000 ]
New "LineCode.1ph-2_acsrxx2_acsr" nphases=1 units=km rmatrix=[  1.12230000 ] xmatrix=[  0.89636500 ] cmatrix=[  6.49582000 ]
New "LineCode.1ph-4_wpalxx4_acsr" nphases=1 units=km rmatrix=[  1.63124000 ] xmatrix=[  0.89897900 ] cmatrix=[  6.32285000 ]
New "LineCode.3ph_h-397_acsr397_acsr397_acsr2/0_acsr" nphases=3 units=km rmatrix=[  0.27001900   0.10995100   0.11353800 |  0.10995100   0.26463400   0.11074700 |  0.11353800   0.11074700   0.27169800 ] xmatrix=[  0.69597400   0.33351000   0.30827100 |  0.33351000   0.70872900   0.35025900 |  0.30827100   0.35025900   0.69202100 ] cmatrix=[  9.13606000  -2.66777000  -2.17646000 | -2.66777000   9.62226000  -3.15664000 | -2.17646000  -3.15664000   9.43197000 ]
New "LineCode.1ph-2_acsrxx4_acsr" nphases=1 units=km rmatrix=[  1.12339000 ] xmatrix=[  0.93779400 ] cmatrix=[  6.49582000 ]
New "LineCode.1ph-xx2_acsr2_acsr" nphases=1 units=km rmatrix=[  1.12230000 ] xmatrix=[  0.89636500 ] cmatrix=[  6.49582000 ]
New "LineCode.1ph-xx4_wpal4_wpal" nphases=1 units=km rmatrix=[  1.63382000 ] xmatrix=[  0.89683000 ] cmatrix=[  6.32285000 ]
New "LineCode.1ph-x4_wpalx4_wpal" nphases=1 units=km rmatrix=[  1.63382000 ] xmatrix=[  0.89683000 ] cmatrix=[  6.32285000 ]
New "LineCode.1ph-xx4_wpal4_acsr" nphases=1 units=km rmatrix=[  1.63124000 ] xmatrix=[  0.89897900 ] cmatrix=[  6.32285000 ]
New "LineCode.1ph-x2_acsrx1/0_tpx" nphases=1 units=km rmatrix=[  1.03207000 ] xmatrix=[  0.80143600 ] cmatrix=[  6.49582000 ]
New "LineCode.1ph-4_acsrxx4_wpal" nphases=1 units=km rmatrix=[  1.67723000 ] xmatrix=[  0.93241100 ] cmatrix=[  6.32285000 ]
New "LineCode.1ph-xx4_acsr1/0_tpx" nphases=1 units=km rmatrix=[  1.58334000 ] xmatrix=[  0.79820300 ] cmatrix=[  6.32285000 ]
New "LineCode.3ph_h-4_wpal4_wpal4_wpal4_acsr" nphases=3 units=km rmatrix=[  1.63999000   0.13832400   0.14266900 |  0.13832400   1.63344000   0.13929400 |  0.14266900   0.13929400   1.64202000 ] xmatrix=[  0.89171900   0.43262300   0.41225300 |  0.43262300   0.89714600   0.45046900 |  0.41225300   0.45046900   0.89005600 ] cmatrix=[  7.60098000  -1.99751000  -1.66797000 | -1.99751000   7.88811000  -2.32489000 | -1.66797000  -2.32489000   7.78037000 ]
New "LineCode.1ph-x4_wpalx4_acsr" nphases=1 units=km rmatrix=[  1.63124000 ] xmatrix=[  0.89897900 ] cmatrix=[  6.32285000 ]
New "LineCode.1ph-4_wpalxx4_wpal" nphases=1 units=km rmatrix=[  1.63382000 ] xmatrix=[  0.89683000 ] cmatrix=[  6.32285000 ]
New "LineCode.3ph_h-4_wpal4_wpal4_wpal4_wpal" nphases=3 units=km rmatrix=[  1.64285000   0.14107800   0.14556600 |  0.14107800   1.63609000   0.14208000 |  0.14556600   0.14208000   1.64495000 ] xmatrix=[  0.88938500   0.43035900   0.40989800 |  0.43035900   0.89495000   0.44818500 |  0.40989800   0.44818500   0.88768000 ] cmatrix=[  7.60098000  -1.99751000  -1.66797000 | -1.99751000   7.88811000  -2.32489000 | -1.66797000  -2.32489000   7.78037000 ]
New "LineCode.3ph_h-2_acsr2_acsr2_acsr2_acsr" nphases=3 units=km rmatrix=[  1.13148000   0.13749900   0.14206600 |  0.13749900   1.12461000   0.13851800 |  0.14206600   0.13851800   1.13362000 ] xmatrix=[  0.88488600   0.38857900   0.36611500 |  0.38857900   0.89346700   0.40595300 |  0.36611500   0.40595300   0.88223900 ] cmatrix=[  7.88350000  -2.11691000  -1.76030000 | -2.11691000   8.20260000  -2.47130000 | -1.76030000  -2.47130000   8.08174000 ]
New "LineCode.1ph-4_acsrxx1/0_tpx" nphases=1 units=km rmatrix=[  1.58334000 ] xmatrix=[  0.79820300 ] cmatrix=[  6.32285000 ]
New "LineCode.3ph_h-4_acsr2_acsr2_acsr4_acsr" nphases=3 units=km rmatrix=[  1.68340000   0.13832400   0.14266900 |  0.13832400   1.12559000   0.13929400 |  0.14266900   0.13929400   1.13417000 ] xmatrix=[  0.92730000   0.43262300   0.41225300 |  0.43262300   0.93596200   0.45046900 |  0.41225300   0.45046900   0.92887100 ] cmatrix=[  7.63018000  -2.04889000  -1.70374000 | -2.04889000   8.18434000  -2.48649000 | -1.70374000  -2.48649000   8.06911000 ]
New "LineCode.1ph-xx4_acsr4_wpal" nphases=1 units=km rmatrix=[  1.67723000 ] xmatrix=[  0.93241100 ] cmatrix=[  6.32285000 ]
New "LineCode.1ph-4_acsrxx2_acsr" nphases=1 units=km rmatrix=[  1.67357000 ] xmatrix=[  0.89313100 ] cmatrix=[  6.32285000 ]
New "LineCode.1ph-x4_wpalx1/0_tpx" nphases=1 units=km rmatrix=[  1.53992000 ] xmatrix=[  0.76262100 ] cmatrix=[  6.32285000 ]
New "LineCode.1ph-xx4_acsr1/0_acsr" nphases=1 units=km rmatrix=[  1.65698000 ] xmatrix=[  0.85526900 ] cmatrix=[  6.32285000 ]
New "LineCode.1ph-2_acsrxx4_wpal" nphases=1 units=km rmatrix=[  1.12597000 ] xmatrix=[  0.93564500 ] cmatrix=[  6.49582000 ]
New "LineCode.1ph-xx2/0_acsr1/0_tpx" nphases=1 units=km rmatrix=[  0.56146100 ] xmatrix=[  0.78649800 ] cmatrix=[  6.76998000 ]
New "LineCode.2ph_h-2_acsrx2_acsr2_acsr" nphases=2 units=km rmatrix=[  1.13148000   0.14206600 |  0.14206600   1.13362000 ] xmatrix=[  0.88488600   0.36611500 |  0.36611500   0.88223900 ] cmatrix=[  7.33718000  -2.39809000 | -2.39809000   7.33718000 ]
New "LineCode.1ph-2_wpalxx2_wpal" nphases=1 units=km rmatrix=[  1.16232000 ] xmatrix=[  0.90003600 ] cmatrix=[  6.49582000 ]
New "LineCode.1ph-2_acsrxx4/0_tpx" nphases=1 units=km rmatrix=[  1.07236000 ] xmatrix=[  0.80797800 ] cmatrix=[  6.49582000 ]
New "LineCode.3ph_h-397_acsr397_acsr397_acsr4_wpal" nphases=3 units=km rmatrix=[  0.30183800   0.14107800   0.14556600 |  0.14107800   0.29507800   0.14208000 |  0.14556600   0.14208000   0.30393600 ] xmatrix=[  0.79648400   0.43035900   0.40989800 |  0.43035900   0.80204900   0.44818500 |  0.40989800   0.44818500   0.79477800 ] cmatrix=[  9.13606000  -2.66777000  -2.17646000 | -2.66777000   9.62226000  -3.15664000 | -2.17646000  -3.15664000   9.43197000 ]
New "LineCode.3ph_h-397_acsr397_acsr397_acsr397_acsr" nphases=3 units=km rmatrix=[  0.21416200   0.05579570   0.05716360 |  0.05579570   0.21213100   0.05608920 |  0.05716360   0.05608920   0.21480100 ] xmatrix=[  0.63495700   0.27487000   0.24652800 |  0.27487000   0.65237500   0.29092000 |  0.24652800   0.29092000   0.62954400 ] cmatrix=[  9.13606000  -2.66777000  -2.17646000 | -2.66777000   9.62226000  -3.15664000 | -2.17646000  -3.15664000   9.43197000 ]
New "LineCode.1ph-xx2_acsr1/0_tpx" nphases=1 units=km rmatrix=[  1.03207000 ] xmatrix=[  0.80143600 ] cmatrix=[  6.49582000 ]
New "LineCode.1ph-x4_acsrx2_wpal" nphases=1 units=km rmatrix=[  1.67434000 ] xmatrix=[  0.89680200 ] cmatrix=[  6.32285000 ]
New "LineCode.1ph-x4_acsrx4_dpx" nphases=1 units=km rmatrix=[  1.67730000 ] xmatrix=[  0.93205900 ] cmatrix=[  6.32285000 ]
New "LineCode.3ph_h-2_acsr2_acsr4_acsr4_acsr" nphases=3 units=km rmatrix=[  1.13214000   0.13832400   0.14266900 |  0.13832400   1.12559000   0.13929400 |  0.14266900   0.13929400   1.68543000 ] xmatrix=[  0.93053400   0.43262300   0.41225300 |  0.43262300   0.93596200   0.45046900 |  0.41225300   0.45046900   0.92563700 ] cmatrix=[  7.87088000  -2.13463000  -1.70236000 | -2.13463000   8.17773000  -2.38996000 | -1.70236000  -2.38996000   7.81573000 ]
New "LineCode.1ph-4_wpalxx1/0_tpx" nphases=1 units=km rmatrix=[  1.53992000 ] xmatrix=[  0.76262100 ] cmatrix=[  6.32285000 ]
New "LineCode.1ph-x4_acsrx1/0_tpx" nphases=1 units=km rmatrix=[  1.58334000 ] xmatrix=[  0.79820300 ] cmatrix=[  6.32285000 ]
New "LineCode.1ph-4_acsrxx1/0_3w_cs" nphases=1 units=km rmatrix=[  1.66186000 ] xmatrix=[  0.84405100 ] cmatrix=[  6.32285000 ]
New "LineCode.1ph-x2_acsrx4_acsr" nphases=1 units=km rmatrix=[  1.12339000 ] xmatrix=[  0.93779400 ] cmatrix=[  6.49582000 ]
New "LineCode.1ph-x2_acsrx1/0_3w_cs" nphases=1 units=km rmatrix=[  1.11059000 ] xmatrix=[  0.84728500 ] cmatrix=[  6.49582000 ]
New "LineCode.3ph_h-2/0_acsr2/0_acsr2/0_acsr2/0_acsr" nphases=3 units=km rmatrix=[  0.63257000   0.10995100   0.11353800 |  0.10995100   0.62718400   0.11074700 |  0.11353800   0.11074700   0.63424900 ] xmatrix=[  0.81275200   0.33351000   0.30827100 |  0.33351000   0.82550700   0.35025900 |  0.30827100   0.35025900   0.80879900 ] cmatrix=[  8.34520000  -2.31601000  -1.91256000 | -2.31601000   8.72099000  -2.71715000 | -1.91256000  -2.71715000   8.57671000 ]
New "LineCode.1ph-2_acsrxx1/0_tpx" nphases=1 units=km rmatrix=[  1.03207000 ] xmatrix=[  0.80143600 ] cmatrix=[  6.49582000 ]
New "LineCode.3ph_h-4_wpal4_wpal4_wpal1/0_tpx" nphases=3 units=km rmatrix=[  1.54119000   0.04235820   0.04301700 |  0.04235820   1.54023000   0.04249210 |  0.04301700   0.04249210   1.54150000 ] xmatrix=[  0.74032200   0.28695500   0.25910600 |  0.28695500   0.75699400   0.30311700 |  0.25910600   0.30311700   0.73514000 ] cmatrix=[  7.60098000  -1.99751000  -1.66797000 | -1.99751000   7.88811000  -2.32489000 | -1.66797000  -2.32489000   7.78037000 ]
New "LineCode.1ph-x4_wpalx2_acsr" nphases=1 units=km rmatrix=[  1.63015000 ] xmatrix=[  0.85755000 ] cmatrix=[  6.32285000 ]
New "LineCode.3ph_h-2/0_acsr2/0_acsr2/0_acsr2_wpal" nphases=3 units=km rmatrix=[  0.66167200   0.13829100   0.14287200 |  0.13829100   0.65477900   0.13931300 |  0.14287200   0.13931300   0.66381600 ] xmatrix=[  0.87400100   0.39248800   0.37021400 |  0.39248800   0.88229600   0.40990500 |  0.37021400   0.40990500   0.87144400 ] cmatrix=[  8.34520000  -2.31601000  -1.91256000 | -2.31601000   8.72099000  -2.71715000 | -1.91256000  -2.71715000   8.57671000 ]
New "LineCode.1ph-xx4_acsr2_acsr" nphases=1 units=km rmatrix=[  1.67357000 ] xmatrix=[  0.89313100 ] cmatrix=[  6.32285000 ]
New "LineCode.1ph-x4_acsrx4_tpx" nphases=1 units=km rmatrix=[  1.67730000 ] xmatrix=[  0.93205900 ] cmatrix=[  6.32285000 ]
New "LineCode.3ph_h-4_acsr4_acsr4_acsr4_tpx" nphases=3 units=km rmatrix=[  1.68634000   0.14115300   0.14564700 |  0.14115300   1.67957000   0.14215700 |  0.14564700   0.14215700   1.68844000 ] xmatrix=[  0.92458000   0.42998600   0.40950800 |  0.42998600   0.93017100   0.44780800 |  0.40950800   0.44780800   0.92286600 ] cmatrix=[  7.60098000  -1.99751000  -1.66797000 | -1.99751000   7.88811000  -2.32489000 | -1.66797000  -2.32489000   7.78037000 ]
New "LineCode.1ph-4_acsrxx6_wpal" nphases=1 units=km rmatrix=[  1.66227000 ] xmatrix=[  0.96720200 ] cmatrix=[  6.32285000 ]
New "LineCode.1ph-xx4_acsr4_tpx" nphases=1 units=km rmatrix=[  1.67730000 ] xmatrix=[  0.93205900 ] cmatrix=[  6.32285000 ]
New "LineCode.3ph_h-397_acsr397_acsr397_acsr2/0_wpal" nphases=3 units=km rmatrix=[  0.27001900   0.10995100   0.11353800 |  0.10995100   0.26463400   0.11074700 |  0.11353800   0.11074700   0.27169800 ] xmatrix=[  0.69597400   0.33351000   0.30827100 |  0.33351000   0.70872900   0.35025900 |  0.30827100   0.35025900   0.69202100 ] cmatrix=[  9.13606000  -2.66777000  -2.17646000 | -2.66777000   9.62226000  -3.15664000 | -2.17646000  -3.15664000   9.43197000 ]
New "LineCode.1ph-2/0_acsrxx2_acsr" nphases=1 units=km rmatrix=[  0.65169100 ] xmatrix=[  0.88142600 ] cmatrix=[  6.76998000 ]
New "LineCode.3ph_h-2/0_acsr2/0_acsr2/0_acsr4_acsr" nphases=3 units=km rmatrix=[  0.66152500   0.13832400   0.14266900 |  0.13832400   0.65498100   0.13929400 |  0.14266900   0.13929400   0.66355500 ] xmatrix=[  0.91559500   0.43262300   0.41225300 |  0.43262300   0.92102300   0.45046900 |  0.41225300   0.45046900   0.91393200 ] cmatrix=[  8.34520000  -2.31601000  -1.91256000 | -2.31601000   8.72099000  -2.71715000 | -1.91256000  -2.71715000   8.57671000 ]
New "LineCode.1ph-xx4_wpal1/0_tpx" nphases=1 units=km rmatrix=[  1.53992000 ] xmatrix=[  0.76262100 ] cmatrix=[  6.32285000 ]
New "LineCode.1ph-xx6_wpal6_wpal" nphases=1 units=km rmatrix=[  2.50305000 ] xmatrix=[  0.97492200 ] cmatrix=[  6.15960000 ]
New "LineCode.1ph-x2_acsrx4_tpx" nphases=1 units=km rmatrix=[  1.12603000 ] xmatrix=[  0.93529300 ] cmatrix=[  6.49582000 ]
New "LineCode.3ph_h-4_acsr4_acsr4_acsr2_wpal" nphases=3 units=km rmatrix=[  1.68355000   0.13829100   0.14287200 |  0.13829100   1.67665000   0.13931300 |  0.14287200   0.13931300   1.68569000 ] xmatrix=[  0.88570600   0.39248800   0.37021400 |  0.39248800   0.89400100   0.40990500 |  0.37021400   0.40990500   0.88314900 ] cmatrix=[  7.60098000  -1.99751000  -1.66797000 | -1.99751000   7.88811000  -2.32489000 | -1.66797000  -2.32489000   7.78037000 ]
New "LineCode.1ph-x4_acsrx1/0_3w_cs" nphases=1 units=km rmatrix=[  1.66186000 ] xmatrix=[  0.84405100 ] cmatrix=[  6.32285000 ]
New "LineCode.1ph-xx2_acsr4_dpx" nphases=1 units=km rmatrix=[  1.12603000 ] xmatrix=[  0.93529300 ] cmatrix=[  6.49582000 ]
New "LineCode.1p_1/0_axnj_db" nphases=1 r1=0.95896 x1=0.54128 r0=0.95896 x0=0.54128 C1=25.923 C0=25.923 units=km baseFreq=60 normamps=220 emergamps=220 faultrate=0.1 pctperm=20 repair=3
New "LineCode.3p_1/0_axnj_db" nphases=3 r1=0.55116 x1=0.20077 r0=1.3504 x0=0.42688 C1=48.666 C0=48.666 units=km baseFreq=60 normamps=190 emergamps=190 faultrate=0.1 pctperm=20 repair=3
New "LineCode.750_triplex" nphases=2 units=kft rmatrix=[  0.04974733   0.02342157 |  0.02342157   0.04974733 ] xmatrix=[  0.02782436   0.00669472 |  0.00669472   0.02782436 ] cmatrix=[  3.00000000  -2.40000000 | -2.40000000   3.00000000 ] normamps=580 emergamps=725
New "LineCode.4/0triplex" nphases=2 units=kft rmatrix=[  0.40995115   0.11809509 |  0.11809509   0.40995115 ] xmatrix=[  0.16681819   0.12759250 |  0.12759250   0.16681819 ] cmatrix=[  3.00000000  -2.40000000 | -2.40000000   3.00000000 ] normamps=156 emergamps=195
