Test_Systems/IEEE_8500_Bus-G/sub/Transformers.dss
New "Transformer.hvmv_sub" phases=3 windings=2 buses=[hvmv_sub_hsb, regxfmr_hvmv_sub_lsb.1.2.3.0, ] conns=[delta, wye, ] kVs=[115, 12.47, ] kVAs=[27500, 27500, ] XHL=15.51 sub=y subname=HVMV_Sub buses=[hvmv_sub_hsb, regxfmr_hvmv_sub_lsb.1.2.3.0, ] conns=[delta, wye, ] kVs=[115, 12.47, ] kVAs=[27500, 27500, ] taps=[1, 1, ] wdg=1 %R=0.67202 RdcOhms=2.747034 wdg=2 %R=0.67202 RdcOhms=0.01076664
New "Transformer.feeder_regc" phases=1 windings=2 bank=FEEDER_REG buses=[regxfmr_hvmv_sub_lsb.3, _hvmv_sub_lsb.3, ] conns=[wye, wye, ] kVs=[7.2, 7.2, ] kVAs=[27500, 27500, ] XHL=0.1 %loadloss=0.001 buses=[regxfmr_hvmv_sub_lsb.3, _hvmv_sub_lsb.3, ] conns=[wye, wye, ] kVs=[7.2, 7.2, ] kVAs=[27500, 27500, ] taps=[1, 1.00625, ] wdg=1 %R=0.0005 RdcOhms=8.011636E-006 wdg=2 %R=0.0005 RdcOhms=8.011636E-006 MaxTap=1.1 MinTap=0.9 ppm_antifloat=0
New "RegControl.feeder_regc" transformer=FEEDER_REGC winding=2 tapwinding=2 vreg=126.5 ptratio=60 band=2
New "Transformer.t226195333c" XfmrCode=CT10 buses=[l2801909.3, x2801909c.1.0, x2801909c.0.2, ]
New "Transformer.t5223658a" XfmrCode=CT5 buses=[l2823592.1, x2823592a.1.0, x2823592a.0.2, ]
New "Transformer.t5223660c" XfmrCode=CT15 buses=[l3160863.3, x3160863c.1.0, x3160863c.0.2, ]
New "Transformer.t5223661c" XfmrCode=CT15 buses=[l2730108.3, x2730108c.1.0, x2730108c.0.2, ]
New "Transformer.t5223662c" XfmrCode=CT37 buses=[l2786204.3, x2786204c.1.0, x2786204c.0.2, ]
New "Transformer.t5223663c" XfmrCode=CT10 buses=[l2936216.3, x2936216c.1.0, x2936216c.0.2, ]
New "Transformer.t5346639c" XfmrCode=CT15 buses=[l2992556.3, x2992556c.1.0, x2992556c.0.2, ]
New "Transformer.t5251867c" XfmrCode=CT25 buses=[l2861157.3, x2861157c.1.0, x2861157c.0.2, ]
New "Transformer.t227411655c" XfmrCode=CT25 buses=[l2806553.3, x2806553c.1.0, x2806553c.0.2, ]
New "Transformer.t5251865c" XfmrCode=CT15 buses=[l3142050.3, x3142050c.1.0, x3142050c.0.2, ]
New "Transformer.t5251862c" XfmrCode=CT15 buses=[l3254873.3, x3254873c.1.0, x3254873c.0.2, ]
New "Transformer.t5251863c" XfmrCode=CT25 buses=[l2745811.3, x2745811c.1.0, x2745811c.0.2, ]
New "Transformer.t226195194c" XfmrCode=CT25 buses=[l3027124.3, x3027124c.1.0, x3027124c.0.2, ]
New "Transformer.t28128517c" XfmrCode=CT25 buses=[l3048890.3, x3048890c.1.0, x3048890c.0.2, ]
New "Transformer.t28128464c" XfmrCode=CT25 buses=[l3048889.3, x3048889c.1.0, x3048889c.0.2, ]
New "Transformer.t5251859c" XfmrCode=CT25 buses=[l2952007.3, x2952007c.1.0, x2952007c.0.2, ]
New "Transformer.t5251858c" XfmrCode=CT25 buses=[l2861158.3, x2861158c.1.0, x2861158c.0.2, ]
New "Transformer.t5251857c" XfmrCode=CT15 buses=[l3064514.3, x3064514c.1.0, x3064514c.0.2, ]
New "Transformer.t5251856c" XfmrCode=CT15 buses=[l3048888.3, x3048888c.1.0, x3048888c.0.2, ]
New "Transformer.t226010605c" XfmrCode=CT15 buses=[l2764411.3, x2764411c.1.0, x2764411c.0.2, ]
New "Transformer.t5356791c" XfmrCode=CT37 buses=[l2767343.3, x2767343c.1.0, x2767343c.0.2, ]
New "Transformer.t5356790c" XfmrCode=CT10 buses=[l2804957.3, x2804957c.1.0, x2804957c.0.2, ]
New "Transformer.t5356789c" XfmrCode=CT15 buses=[l3048937.3, x3048937c.1.0, x3048937c.0.2, ]
New "Transformer.t5356788c" XfmrCode=CT10 buses=[l3176661.3, x3176661c.1.0, x3176661c.0.2, ]
New "Transformer.t5356787c" XfmrCode=CT25 buses=[l2970804.3, x2970804c.1.0, x2970804c.0.2, ]
New "Transformer.t225533423c" XfmrCode=CT15 buses=[l2891575.3, x2891575c.1.0, x2891575c.0.2, ]
New "Transformer.t21386442c" XfmrCode=CT37 buses=[l3179637.3, x3179637c.1.0, x3179637c.0.2, ]
New "Transformer.t228314460c" XfmrCode=CT25 buses=[l3253570.3, x3253570c.1.0, x3253570c.0.2, ]
New "Transformer.t227411650c" XfmrCode=CT25 buses=[l2937757.3, x2937757c.1.0, x2937757c.0.2, ]
New "Transformer.t5262075c" XfmrCode=CT25 buses=[l3067448.3, x3067448c.1.0, x3067448c.0.2, ]
New "Transformer.t225906836c" XfmrCode=CT25 buses=[l2763407.3, x2763407c.1.0, x2763407c.0.2, ]
New "Transformer.t5223655c" XfmrCode=CT15 buses=[l2936268.3, x2936268c.1.0, x2936268c.0.2, ]
New "Transformer.t21386877a" XfmrCode=CT15 buses=[l2823611.1, x2823611a.1.0, x2823611a.0.2, ]
New "Transformer.t0107636a" XfmrCode=CT25 buses=[l3030204.1, x3030204a.1.0, x3030204a.0.2, ]
New "Transformer.t226264795a" XfmrCode=CT25 buses=[l3139366.1, x3139366a.1.0, x3139366a.0.2, ]
New "Transformer.t227944551c" XfmrCode=CT250 buses=[l3234149.3, x3234149c.1.0, x3234149c.0.2, ]
New "Transformer.t227944551b" XfmrCode=CT250 buses=[l3234149.2, x3234149b.1.0, x3234149b.0.2, ]
New "Transformer.t227944551a" XfmrCode=CT250 buses=[l3234149.1, x3234149a.1.0, x3234149a.0.2, ]
New "Transformer.t5260461b" XfmrCode=CT25 buses=[l2861223.2, x2861223b.1.0, x2861223b.0.2, ]
New "Transformer.t28129466c" XfmrCode=CT50 buses=[l3011293.3, x3011293c.1.0, x3011293c.0.2, ]
New "Transformer.t28129466b" XfmrCode=CT50 buses=[l3011293.2, x3011293b.1.0, x3011293b.0.2, ]
New "Transformer.t28129466a" XfmrCode=CT50 buses=[l3011293.1, x3011293a.1.0, x3011293a.0.2, ]
New "Transformer.t28129923c" XfmrCode=CT15 buses=[l3123509.3, x3123509c.1.0, x3123509c.0.2, ]
New "Transformer.t5157715b" XfmrCode=CT10 buses=[l2936275.2, x2936275b.1.0, x2936275b.0.2, ]
New "Transformer.t5157716b" XfmrCode=CT25 buses=[l3179674.2, x3179674b.1.0, x3179674b.0.2, ]
New "Transformer.t5260463b" XfmrCode=CT15 buses=[l3086075.2, x3086075b.1.0, x3086075b.0.2, ]
New "Transformer.t5157717b" XfmrCode=CT15 buses=[l2748840.2, x2748840b.1.0, x2748840b.0.2, ]
New "Transformer.t5157718b" XfmrCode=CT25 buses=[l3142099.2, x3142099b.1.0, x3142099b.0.2, ]
New "Transformer.t5260457b" XfmrCode=CT10 buses=[l3086079.2, x3086079b.1.0, x3086079b.0.2, ]
New "Transformer.t5260458b" XfmrCode=CT10 buses=[l2936276.2, x2936276b.1.0, x2936276b.0.2, ]
New "Transformer.t5260630b" XfmrCode=CT15 buses=[l2973833.2, x2973833b.1.0, x2973833b.0.2, ]
New "Transformer.t5260627a" XfmrCode=CT37 buses=[l2992656.1, x2992656a.1.0, x2992656a.0.2, ]
New "Transformer.t5260467a" XfmrCode=CT15 buses=[l3104856.1, x3104856a.1.0, x3104856a.0.2, ]
New "Transformer.t5260464a" XfmrCode=CT37 buses=[l2730187.1, x2730187a.1.0, x2730187a.0.2, ]
New "Transformer.t28150292a" XfmrCode=CT15 buses=[l2839305.1, x2839305a.1.0, x2839305a.0.2, ]
New "Transformer.t5260648a" XfmrCode=CT25 buses=[l2898522.1, x2898522a.1.0, x2898522a.0.2, ]
New "Transformer.t5260650a" XfmrCode=CT25 buses=[l2692661.1, x2692661a.1.0, x2692661a.0.2, ]
New "Transformer.t5260631a" XfmrCode=CT15 buses=[l2786266.1, x2786266a.1.0, x2786266a.0.2, ]
New "Transformer.t5260634a" XfmrCode=CT15 buses=[l2842383.1, x2842383a.1.0, x2842383a.0.2, ]
New "Transformer.t5260637c" XfmrCode=CT10 buses=[l2842384.3, x2842384c.1.0, x2842384c.0.2, ]
New "Transformer.t5260638c" XfmrCode=CT25 buses=[l3160871.3, x3160871c.1.0, x3160871c.0.2, ]
New "Transformer.t5260639c" XfmrCode=CT25 buses=[l3030203.3, x3030203c.1.0, x3030203c.0.2, ]
New "Transformer.t5260640c" XfmrCode=CT15 buses=[l3179673.3, x3179673c.1.0, x3179673c.0.2, ]
New "Transformer.t5260641b" XfmrCode=CT37 buses=[l3048965.2, x3048965b.1.0, x3048965b.0.2, ]
New "Transformer.t5260643a" XfmrCode=CT50 buses=[l2692660.1, x2692660a.1.0, x2692660a.0.2, ]
New "Transformer.t21243817a" XfmrCode=CT15 buses=[l2955076.1, x2955076a.1.0, x2955076a.0.2, ]
New "Transformer.t5260543c" XfmrCode=CT25 buses=[l2955077.3, x2955077c.1.0, x2955077c.0.2, ]
New "Transformer.t5260551c" XfmrCode=CT37 buses=[l3160872.3, x3160872c.1.0, x3160872c.0.2, ]
New "Transformer.t5260558c" XfmrCode=CT10 buses=[l3160861.3, x3160861c.1.0, x3160861c.0.2, ]
New "Transformer.t5260562a" XfmrCode=CT37 buses=[l3251799.1, x3251799a.1.0, x3251799a.0.2, ]
New "Transformer.t226194419c" XfmrCode=CT25 buses=[l3214071.3, x3214071c.1.0, x3214071c.0.2, ]
New "Transformer.t5260572c" XfmrCode=CT15 buses=[l3236004.3, x3236004c.1.0, x3236004c.0.2, ]
New "Transformer.t5260567c" XfmrCode=CT15 buses=[l2936211.3, x2936211c.1.0, x2936211c.0.2, ]
New "Transformer.t5260568c" XfmrCode=CT15 buses=[l2842329.3, x2842329c.1.0, x2842329c.0.2, ]
New "Transformer.t226194421c" XfmrCode=CT25 buses=[l3214069.3, x3214069c.1.0, x3214069c.0.2, ]
New "Transformer.t21474711c" XfmrCode=CT15 buses=[l2861197.3, x2861197c.1.0, x2861197c.0.2, ]
New "Transformer.t5260573c" XfmrCode=CT15 buses=[l3160896.3, x3160896c.1.0, x3160896c.0.2, ]
New "Transformer.t21386065c" XfmrCode=CT25 buses=[l2917255.3, x2917255c.1.0, x2917255c.0.2, ]
New "Transformer.t5260569c" XfmrCode=CT25 buses=[l3104796.3, x3104796c.1.0, x3104796c.0.2, ]
New "Transformer.t5260574c" XfmrCode=CT25 buses=[l3123452.3, x3123452c.1.0, x3123452c.0.2, ]
New "Transformer.t5260577c" XfmrCode=CT37 buses=[l2767341.3, x2767341c.1.0, x2767341c.0.2, ]
New "Transformer.t5260598a" XfmrCode=CT37 buses=[l3067478.1, x3067478a.1.0, x3067478a.0.2, ]
New "Transformer.t5260601c" XfmrCode=CT15 buses=[l2730149.3, x2730149c.1.0, x2730149c.0.2, ]
New "Transformer.t5260602b" XfmrCode=CT15 buses=[l2989566.2, x2989566b.1.0, x2989566b.0.2, ]
New "Transformer.t5337614b" XfmrCode=CT25 buses=[l2952003.2, x2952003b.1.0, x2952003b.0.2, ]
New "Transformer.t227760021c" XfmrCode=CT50 buses=[l2803199.3, x2803199c.1.0, x2803199c.0.2, ]
New "Transformer.t227760021b" XfmrCode=CT50 buses=[l2803199.2, x2803199b.1.0, x2803199b.0.2, ]
New "Transformer.t227760021a" XfmrCode=CT50 buses=[l2803199.1, x2803199a.1.0, x2803199a.0.2, ]
New "Transformer.t21482181a" XfmrCode=CT25 buses=[l3254237.1, x3254237a.1.0, x3254237a.0.2, ]
New "Transformer.t227187012c" XfmrCode=CT15 buses=[l2896685.3, x2896685c.1.0, x2896685c.0.2, ]
New "Transformer.t227187012b" XfmrCode=CT15 buses=[l2896685.2, x2896685b.1.0, x2896685b.0.2, ]
New "Transformer.t227187012a" XfmrCode=CT15 buses=[l2896685.1, x2896685a.1.0, x2896685a.0.2, ]
New "Transformer.t5337619c" XfmrCode=CT25 buses=[l2990826.3, x2990826c.1.0, x2990826c.0.2, ]
New "Transformer.t5337619b" XfmrCode=CT25 buses=[l2990826.2, x2990826b.1.0, x2990826b.0.2, ]
New "Transformer.t5337619a" XfmrCode=CT25 buses=[l2990826.1, x2990826a.1.0, x2990826a.0.2, ]
New "Transformer.t5337729c" XfmrCode=CT10 buses=[l2728247.3, x2728247c.1.0, x2728247c.0.2, ]
New "Transformer.t5337729b" XfmrCode=CT25 buses=[l2728247.2, x2728247b.1.0, x2728247b.0.2, ]
New "Transformer.t5337729a" XfmrCode=CT10 buses=[l2728247.1, x2728247a.1.0, x2728247a.0.2, ]
New "Transformer.t227921427c" XfmrCode=CT50 buses=[l2915542.3, x2915542c.1.0, x2915542c.0.2, ]
New "Transformer.t227921427b" XfmrCode=CT50 buses=[l2915542.2, x2915542b.1.0, x2915542b.0.2, ]
New "Transformer.t227921427a" XfmrCode=CT50 buses=[l2915542.1, x2915542a.1.0, x2915542a.0.2, ]
New "Transformer.t227760024c" XfmrCode=CT50 buses=[l3215203.3, x3215203c.1.0, x3215203c.0.2, ]
New "Transformer.t227760024b" XfmrCode=CT50 buses=[l3215203.2, x3215203b.1.0, x3215203b.0.2, ]
New "Transformer.t227760024a" XfmrCode=CT50 buses=[l3215203.1, x3215203a.1.0, x3215203a.0.2, ]
New "Transformer.t226308710b" XfmrCode=CT75 buses=[l2708744.2, x2708744b.1.0, x2708744b.0.2, ]
New "Transformer.t226308716b" XfmrCode=CT75 buses=[l2690187.2, x2690187b.1.0, x2690187b.0.2, ]
New "Transformer.t226308719b" XfmrCode=CT75 buses=[l3027670.2, x3027670b.1.0, x3027670b.0.2, ]
New "Transformer.t226308725b" XfmrCode=CT75 buses=[l2802480.2, x2802480b.1.0, x2802480b.0.2, ]
New "Transformer.t226308723b" XfmrCode=CT37 buses=[l3252336.2, x3252336b.1.0, x3252336b.0.2, ]
New "Transformer.t226308727b" XfmrCode=CT50 buses=[l3233413.2, x3233413b.1.0, x3233413b.0.2, ]
New "Transformer.t226308729b" XfmrCode=CT75 buses=[l3102286.2, x3102286b.1.0, x3102286b.0.2, ]
New "Transformer.t226308717a" XfmrCode=CT50 buses=[l3233412.1, x3233412a.1.0, x3233412a.0.2, ]
New "Transformer.t226308720a" XfmrCode=CT75 buses=[l2821087.1, x2821087a.1.0, x2821087a.0.2, ]
New "Transformer.t226308721a" XfmrCode=CT50 buses=[l2990098.1, x2990098a.1.0, x2990098a.0.2, ]
New "Transformer.t226308728a" XfmrCode=CT37 buses=[l3027671.1, x3027671a.1.0, x3027671a.0.2, ]
New "Transformer.t226308730a" XfmrCode=CT75 buses=[l2802481.1, x2802481a.1.0, x2802481a.0.2, ]
New "Transformer.t226308731a" XfmrCode=CT50 buses=[l3214549.1, x3214549a.1.0, x3214549a.0.2, ]
New "Transformer.t228001810a" XfmrCode=CT25 buses=[l2859403.1, x2859403a.1.0, x2859403a.0.2, ]
New "Transformer.t5260605a" XfmrCode=CT50 buses=[l2973791.1, x2973791a.1.0, x2973791a.0.2, ]
New "Transformer.t5251828b" XfmrCode=CT15 buses=[l3179650.2, x3179650b.1.0, x3179650b.0.2, ]
New "Transformer.t226194826a" XfmrCode=CT25 buses=[l3232902.1, x3232902a.1.0, x3232902a.0.2, ]
New "Transformer.t226197070a" XfmrCode=CT25 buses=[l2933135.1, x2933135a.1.0, x2933135a.0.2, ]
New "Transformer.t5356814c" XfmrCode=CT25 buses=[l2730106.3, x2730106c.1.0, x2730106c.0.2, ]
New "Transformer.t5356810c" XfmrCode=CT10 buses=[l3142049.3, x3142049c.1.0, x3142049c.0.2, ]
New "Transformer.t5328367c" XfmrCode=CT10 buses=[l3104830.3, x3104830c.1.0, x3104830c.0.2, ]
New "Transformer.t226194865a" XfmrCode=CT25 buses=[l3027122.1, x3027122a.1.0, x3027122a.0.2, ]
New "Transformer.t228622562a" XfmrCode=CT15 buses=[l3108449.1, x3108449a.1.0, x3108449a.0.2, ]
New "Transformer.t227895952a" XfmrCode=CT25 buses=[l3065665.1, x3065665a.1.0, x3065665a.0.2, ]
New "Transformer.t5356800a" XfmrCode=CT25 buses=[l3235946.1, x3235946a.1.0, x3235946a.0.2, ]
New "Transformer.t5356801a" XfmrCode=CT15 buses=[l3011229.1, x3011229a.1.0, x3011229a.0.2, ]
New "Transformer.t5356802a" XfmrCode=CT25 buses=[l2767342.1, x2767342a.1.0, x2767342a.0.2, ]
New "Transformer.t5356803a" XfmrCode=CT25 buses=[l2748780.1, x2748780a.1.0, x2748780a.0.2, ]
New "Transformer.t5356804a" XfmrCode=CT25 buses=[l2823544.1, x2823544a.1.0, x2823544a.0.2, ]
New "Transformer.t5356805a" XfmrCode=CT15 buses=[l3195321.1, x3195321a.1.0, x3195321a.0.2, ]
New "Transformer.t5356808a" XfmrCode=CT37 buses=[l3101782.1, x3101782a.1.0, x3101782a.0.2, ]
New "Transformer.t5356807a" XfmrCode=CT25 buses=[l2823545.1, x2823545a.1.0, x2823545a.0.2, ]
New "Transformer.t21382813a" XfmrCode=CT37 buses=[l2748781.1, x2748781a.1.0, x2748781a.0.2, ]
New "Transformer.t21469911a" XfmrCode=CT25 buses=[l2955047.1, x2955047a.1.0, x2955047a.0.2, ]
New "Transformer.t5328365b" XfmrCode=CT37 buses=[l3179646.2, x3179646b.1.0, x3179646b.0.2, ]
New "Transformer.t21380325b" XfmrCode=CT25 buses=[l2674027.2, x2674027b.1.0, x2674027b.0.2, ]
New "Transformer.t5328364c" XfmrCode=CT25 buses=[l2692633.3, x2692633c.1.0, x2692633c.0.2, ]
New "Transformer.vreg3_c" phases=1 windings=2 bank=VREG3 buses=[regxfmr_190-8581.3, 190-8581.3, ] conns=[wye, wye, ] kVs=[7.2, 7.2, ] kVAs=[10000, 10000, ] XHL=0.1 %loadloss=0.01 buses=[regxfmr_190-8581.3, 190-8581.3, ] conns=[wye, wye, ] kVs=[7.2, 7.2, ] kVAs=[10000, 10000, ] taps=[1, 1.00625, ] wdg=1 %R=0.005 RdcOhms=0.00022032 wdg=2 %R=0.005 RdcOhms=0.00022032 MaxTap=1.1 MinTap=0.9 ppm_antifloat=0
New "RegControl.vreg3_c" transformer=VREG3_C winding=2 tapwinding=2 vreg=125 ptratio=60 band=2
New "Transformer.t5356797c" XfmrCode=CT25 buses=[l2955006.3, x2955006c.1.0, x2955006c.0.2, ]
New "Transformer.t5356798c" XfmrCode=CT25 buses=[l2692600.3, x2692600c.1.0, x2692600c.0.2, ]
New "Transformer.t5356796c" XfmrCode=CT25 buses=[l3235945.3, x3235945c.1.0, x3235945c.0.2, ]
New "Transformer.t5356795c" XfmrCode=CT25 buses=[l2842330.3, x2842330c.1.0, x2842330c.0.2, ]
New "Transformer.t5356794c" XfmrCode=CT25 buses=[l3086002.3, x3086002c.1.0, x3086002c.0.2, ]
New "Transformer.t5251855c" XfmrCode=CT25 buses=[l2730107.3, x2730107c.1.0, x2730107c.0.2, ]
New "Transformer.t5356793c" XfmrCode=CT37 buses=[l3179608.3, x3179608c.1.0, x3179608c.0.2, ]
New "Transformer.t225533215c" XfmrCode=CT10 buses=[l3097861.3, x3097861c.1.0, x3097861c.0.2, ]
New "Transformer.t5339043c" XfmrCode=CT25 buses=[l2804277.3, x2804277c.1.0, x2804277c.0.2, ]
New "Transformer.t5339044c" XfmrCode=CT15 buses=[l3197625.3, x3197625c.1.0, x3197625c.0.2, ]
New "Transformer.t21380453a" XfmrCode=CT15 buses=[l3010557.1, x3010557a.1.0, x3010557a.0.2, ]
New "Transformer.t226115278a" XfmrCode=CT15 buses=[l3157167.1, x3157167a.1.0, x3157167a.0.2, ]
New "Transformer.t5339046a" XfmrCode=CT25 buses=[l2785511.1, x2785511a.1.0, x2785511a.0.2, ]
New "Transformer.t5339049a" XfmrCode=CT25 buses=[l2916602.1, x2916602a.1.0, x2916602a.0.2, ]
New "Transformer.t5339047a" XfmrCode=CT25 buses=[l2973148.1, x2973148a.1.0, x2973148a.0.2, ]
New "Transformer.t5339048a" XfmrCode=CT15 buses=[l3160098.1, x3160098a.1.0, x3160098a.0.2, ]
New "Transformer.t21380500c" XfmrCode=CT25 buses=[l3235242.3, x3235242c.1.0, x3235242c.0.2, ]
New "Transformer.t5442373c" XfmrCode=CT25 buses=[l3141393.3, x3141393c.1.0, x3141393c.0.2, ]
New "Transformer.t5339052c" XfmrCode=CT37 buses=[l3118855.3, x3118855c.1.0, x3118855c.0.2, ]
New "Transformer.t5339051c" XfmrCode=CT25 buses=[l3231255.3, x3231255c.1.0, x3231255c.0.2, ]
New "Transformer.t5338979b" XfmrCode=CT10 buses=[l3066814.2, x3066814b.1.0, x3066814b.0.2, ]
New "Transformer.t5338984a" XfmrCode=CT25 buses=[l2748144.1, x2748144a.1.0, x2748144a.0.2, ]
New "Transformer.t5338983b" XfmrCode=CT5 buses=[l2691965.2, x2691965b.1.0, x2691965b.0.2, ]
New "Transformer.t5338982b" XfmrCode=CT25 buses=[l2785534.2, x2785534b.1.0, x2785534b.0.2, ]
New "Transformer.t226193886b" XfmrCode=CT25 buses=[l2783231.2, x2783231b.1.0, x2783231b.0.2, ]
New "Transformer.t5338995b" XfmrCode=CT10 buses=[l3254227.2, x3254227b.1.0, x3254227b.0.2, ]
New "Transformer.t5338990b" XfmrCode=CT50 buses=[l2673331.2, x2673331b.1.0, x2673331b.0.2, ]
New "Transformer.t5338993b" XfmrCode=CT15 buses=[l2804272.2, x2804272b.1.0, x2804272b.0.2, ]
New "Transformer.t21380156b" XfmrCode=CT15 buses=[l2841641.2, x2841641b.1.0, x2841641b.0.2, ]
New "Transformer.t226193892b" XfmrCode=CT15 buses=[l3176660.2, x3176660b.1.0, x3176660b.0.2, ]
New "Transformer.t5339010b" XfmrCode=CT50 buses=[l2691966.2, x2691966b.1.0, x2691966b.0.2, ]
New "Transformer.t5339016b" XfmrCode=CT25 buses=[l3235273.2, x3235273b.1.0, x3235273b.0.2, ]
New "Transformer.t226193899b" XfmrCode=CT25 buses=[l3082983.2, x3082983b.1.0, x3082983b.0.2, ]
New "Transformer.t226194002b" XfmrCode=CT37 buses=[l2801902.2, x2801902b.1.0, x2801902b.0.2, ]
New "Transformer.t5339008b" XfmrCode=CT15 buses=[l3122835.2, x3122835b.1.0, x3122835b.0.2, ]
New "Transformer.t5339007b" XfmrCode=CT25 buses=[l2916617.2, x2916617b.1.0, x2916617b.0.2, ]
New "Transformer.t28147708b" XfmrCode=CT25 buses=[l2991929.2, x2991929b.1.0, x2991929b.0.2, ]
New "Transformer.t227734175b" XfmrCode=CT25 buses=[l3102793.2, x3102793b.1.0, x3102793b.0.2, ]
New "Transformer.t5339006b" XfmrCode=CT25 buses=[l2916619.2, x2916619b.1.0, x2916619b.0.2, ]
New "Transformer.t21383494b" XfmrCode=CT25 buses=[l2954361.2, x2954361b.1.0, x2954361b.0.2, ]
New "Transformer.t5325474b" XfmrCode=CT25 buses=[l3254228.2, x3254228b.1.0, x3254228b.0.2, ]
New "Transformer.t5323282b" XfmrCode=CT37 buses=[l2897791.2, x2897791b.1.0, x2897791b.0.2, ]
New "Transformer.t5339005b" XfmrCode=CT37 buses=[l2785535.2, x2785535b.1.0, x2785535b.0.2, ]
New "Transformer.t5339004b" XfmrCode=CT25 buses=[l3197653.2, x3197653b.1.0, x3197653b.0.2, ]
New "Transformer.t226193395b" XfmrCode=CT25 buses=[l2726974.2, x2726974b.1.0, x2726974b.0.2, ]
New "Transformer.t5323283b" XfmrCode=CT37 buses=[l2916618.2, x2916618b.1.0, x2916618b.0.2, ]
New "Transformer.t5323284b" XfmrCode=CT25 buses=[l3160113.2, x3160113b.1.0, x3160113b.0.2, ]
New "Transformer.t5323285b" XfmrCode=CT25 buses=[l2804269.2, x2804269b.1.0, x2804269b.0.2, ]
New "Transformer.t5323286b" XfmrCode=CT15 buses=[l2989564.2, x2989564b.1.0, x2989564b.0.2, ]
New "Transformer.t5323287b" XfmrCode=CT15 buses=[l2897789.2, x2897789b.1.0, x2897789b.0.2, ]
New "Transformer.t21383553b" XfmrCode=CT15 buses=[l2935547.2, x2935547b.1.0, x2935547b.0.2, ]
New "Transformer.t5339013b" XfmrCode=CT15 buses=[l2804270.2, x2804270b.1.0, x2804270b.0.2, ]
New "Transformer.t5339011b" XfmrCode=CT15 buses=[l3104145.2, x3104145b.1.0, x3104145b.0.2, ]
New "Transformer.t5339012b" XfmrCode=CT25 buses=[l2973171.2, x2973171b.1.0, x2973171b.0.2, ]
New "Transformer.t5339097b" XfmrCode=CT15 buses=[l3085410.2, x3085410b.1.0, x3085410b.0.2, ]
New "Transformer.t5338997b" XfmrCode=CT50 buses=[l2860499.2, x2860499b.1.0, x2860499b.0.2, ]
New "Transformer.t5338998b" XfmrCode=CT25 buses=[l3254229.2, x3254229b.1.0, x3254229b.0.2, ]
New "Transformer.t5339001b" XfmrCode=CT10 buses=[l3178988.2, x3178988b.1.0, x3178988b.0.2, ]
New "Transformer.t21381118b" XfmrCode=CT15 buses=[l2710530.2, x2710530b.1.0, x2710530b.0.2, ]
New "Transformer.t5339003b" XfmrCode=CT37 buses=[l3066826.2, x3066826b.1.0, x3066826b.0.2, ]
New "Transformer.t5338999b" XfmrCode=CT10 buses=[l2822873.2, x2822873b.1.0, x2822873b.0.2, ]
New "Transformer.t5339002b" XfmrCode=CT15 buses=[l2785536.2, x2785536b.1.0, x2785536b.0.2, ]
New "Transformer.t5338994b" XfmrCode=CT50 buses=[l3160115.2, x3160115b.1.0, x3160115b.0.2, ]
New "Transformer.t5338992b" XfmrCode=CT15 buses=[l2935567.2, x2935567b.1.0, x2935567b.0.2, ]
New "Transformer.t21357984c" XfmrCode=CT25 buses=[l2897790.3, x2897790c.1.0, x2897790c.0.2, ]
New "Transformer.t5441854c" XfmrCode=CT25 buses=[l2935566.3, x2935566c.1.0, x2935566c.0.2, ]
New "Transformer.t5339017c" XfmrCode=CT15 buses=[l2729423.3, x2729423c.1.0, x2729423c.0.2, ]
New "Transformer.t5339021a" XfmrCode=CT25 buses=[l3197652.1, x3197652a.1.0, x3197652a.0.2, ]
New "Transformer.t28121368a" XfmrCode=CT25 buses=[l2748143.1, x2748143a.1.0, x2748143a.0.2, ]
New "Transformer.t226881700a" XfmrCode=CT25 buses=[l3251854.1, x3251854a.1.0, x3251854a.0.2, ]
New "Transformer.t5339018a" XfmrCode=CT15 buses=[l2729424.1, x2729424a.1.0, x2729424a.0.2, ]
New "Transformer.t5339020a" XfmrCode=CT10 buses=[l3104144.1, x3104144a.1.0, x3104144a.0.2, ]
New "Transformer.t5339019a" XfmrCode=CT15 buses=[l3160114.1, x3160114a.1.0, x3160114a.0.2, ]
New "Transformer.t226193838c" XfmrCode=CT25 buses=[l3008237.3, x3008237c.1.0, x3008237c.0.2, ]
New "Transformer.t5338981b" XfmrCode=CT25 buses=[l2820535.2, x2820535b.1.0, x2820535b.0.2, ]
New "Transformer.t5338978c" XfmrCode=CT25 buses=[l2766738.3, x2766738c.1.0, x2766738c.0.2, ]
New "Transformer.t5338977c" XfmrCode=CT10 buses=[l2916620.3, x2916620c.1.0, x2916620c.0.2, ]
New "Transformer.t5338977b" XfmrCode=CT10 buses=[l2916620.2, x2916620b.1.0, x2916620b.0.2, ]
New "Transformer.t5338977a" XfmrCode=CT10 buses=[l2916620.1, x2916620a.1.0, x2916620a.0.2, ]
New "Transformer.t5338985a" XfmrCode=CT15 buses=[l2897792.1, x2897792a.1.0, x2897792a.0.2, ]
New "Transformer.t5338986a" XfmrCode=CT25 buses=[l2785538.1, x2785538a.1.0, x2785538a.0.2, ]
New "Transformer.t5338987a" XfmrCode=CT10 buses=[l2897793.1, x2897793a.1.0, x2897793a.0.2, ]
New "Transformer.t226193298a" XfmrCode=CT25 buses=[l2820533.1, x2820533a.1.0, x2820533a.0.2, ]
New "Transformer.t5338989a" XfmrCode=CT5 buses=[l3254230.1, x3254230a.1.0, x3254230a.0.2, ]
New "Transformer.t21380528a" XfmrCode=CT15 buses=[l2973150.1, x2973150a.1.0, x2973150a.0.2, ]
New "Transformer.t21380599a" XfmrCode=CT37 buses=[l3066804.1, x3066804a.1.0, x3066804a.0.2, ]
New "Transformer.t5338988a" XfmrCode=CT10 buses=[l3254231.1, x3254231a.1.0, x3254231a.0.2, ]
New "Transformer.t5338976b" XfmrCode=CT15 buses=[l2691967.2, x2691967b.1.0, x2691967b.0.2, ]
New "Transformer.t21382992a" XfmrCode=CT25 buses=[l3197654.1, x3197654a.1.0, x3197654a.0.2, ]
New "Transformer.t5338972b" XfmrCode=CT25 buses=[l2841632.2, x2841632b.1.0, x2841632b.0.2, ]
New "Transformer.vreg2_c" phases=1 windings=2 bank=VREG2 buses=[regxfmr_190-8593.3, 190-8593.3, ] conns=[wye, wye, ] kVs=[7.2, 7.2, ] kVAs=[10000, 10000, ] XHL=0.1 %loadloss=0.01 buses=[regxfmr_190-8593.3, 190-8593.3, ] conns=[wye, wye, ] kVs=[7.2, 7.2, ] kVAs=[10000, 10000, ] taps=[1, 1.0125, ] wdg=1 %R=0.005 RdcOhms=0.00022032 wdg=2 %R=0.005 RdcOhms=0.00022032 MaxTap=1.1 MinTap=0.9 ppm_antifloat=0
New "RegControl.vreg2_c" transformer=VREG2_C winding=2 tapwinding=2 vreg=125 ptratio=60 band=2
New "Transformer.t5338968c" XfmrCode=CT37 buses=[l3178979.3, x3178979c.1.0, x3178979c.0.2, ]
New "Transformer.t5338966c" XfmrCode=CT25 buses=[l3029505.3, x3029505c.1.0, x3029505c.0.2, ]
New "Transformer.t5338967c" XfmrCode=CT25 buses=[l2673318.3, x2673318c.1.0, x2673318c.0.2, ]
New "Transformer.t5338965a" XfmrCode=CT25 buses=[l3010568.1, x3010568a.1.0, x3010568a.0.2, ]
New "Transformer.t225533162a" XfmrCode=CT15 buses=[l2685809.1, x2685809a.1.0, x2685809a.0.2, ]
New "Transformer.t5338945a" XfmrCode=CT25 buses=[l2954353.1, x2954353a.1.0, x2954353a.0.2, ]
New "Transformer.t226192994a" XfmrCode=CT10 buses=[l2858166.1, x2858166a.1.0, x2858166a.0.2, ]
New "Transformer.t5338936c" XfmrCode=CT25 buses=[l3066815.3, x3066815c.1.0, x3066815c.0.2, ]
New "Transformer.t228665517c" XfmrCode=CT37 buses=[l3103822.3, x3103822c.1.0, x3103822c.0.2, ]
New "Transformer.t5338934b" XfmrCode=CT15 buses=[l2879070.2, x2879070b.1.0, x2879070b.0.2, ]
New "Transformer.t5338933b" XfmrCode=CT37 buses=[l3216345.2, x3216345b.1.0, x3216345b.0.2, ]
New "Transformer.t5441331c" XfmrCode=CT25 buses=[l3235254.3, x3235254c.1.0, x3235254c.0.2, ]
New "Transformer.t5355943c" XfmrCode=CT25 buses=[l2785529.3, x2785529c.1.0, x2785529c.0.2, ]
New "Transformer.t5355944b" XfmrCode=CT25 buses=[l3197646.2, x3197646b.1.0, x3197646b.0.2, ]
New "Transformer.t5355840b" XfmrCode=CT25 buses=[l2822871.2, x2822871b.1.0, x2822871b.0.2, ]
New "Transformer.t226191778c" XfmrCode=CT25 buses=[l2820528.3, x2820528c.1.0, x2820528c.0.2, ]
New "Transformer.t226191779c" XfmrCode=CT25 buses=[l2745799.3, x2745799c.1.0, x2745799c.0.2, ]
New "Transformer.t226191772c" XfmrCode=CT15 buses=[l3120484.3, x3120484c.1.0, x3120484c.0.2, ]
New "Transformer.t5355767b" XfmrCode=CT37 buses=[l3197634.2, x3197634b.1.0, x3197634b.0.2, ]
New "Transformer.t5356062b" XfmrCode=CT25 buses=[l3122816.2, x3122816b.1.0, x3122816b.0.2, ]
New "Transformer.t5356063c" XfmrCode=CT15 buses=[l3160103.3, x3160103c.1.0, x3160103c.0.2, ]
New "Transformer.t5321840b" XfmrCode=CT10 buses=[l2804256.2, x2804256b.1.0, x2804256b.0.2, ]
New "Transformer.t5321839a" XfmrCode=CT25 buses=[l2710516.1, x2710516a.1.0, x2710516a.0.2, ]
New "Transformer.t5321838a" XfmrCode=CT25 buses=[l2691944.1, x2691944a.1.0, x2691944a.0.2, ]
New "Transformer.t5321837a" XfmrCode=CT25 buses=[l2673312.1, x2673312a.1.0, x2673312a.0.2, ]
New "Transformer.t5321836a" XfmrCode=CT15 buses=[l3235247.1, x3235247a.1.0, x3235247a.0.2, ]
New "Transformer.t5321852c" XfmrCode=CT10 buses=[l2916608.3, x2916608c.1.0, x2916608c.0.2, ]
New "Transformer.t5321853b" XfmrCode=CT25 buses=[l2673313.2, x2673313b.1.0, x2673313b.0.2, ]
New "Transformer.t5321854b" XfmrCode=CT15 buses=[l2804257.2, x2804257b.1.0, x2804257b.0.2, ]
New "Transformer.t5321855b" XfmrCode=CT15 buses=[l2860485.2, x2860485b.1.0, x2860485b.0.2, ]
New "Transformer.t5321856b" XfmrCode=CT15 buses=[l2860506.2, x2860506b.1.0, x2860506b.0.2, ]
New "Transformer.t28127681b" XfmrCode=CT25 buses=[l2785522.2, x2785522b.1.0, x2785522b.0.2, ]
New "Transformer.t5321859b" XfmrCode=CT25 buses=[l3254213.2, x3254213b.1.0, x3254213b.0.2, ]
New "Transformer.t228057846a" XfmrCode=CT25 buses=[l3215340.1, x3215340a.1.0, x3215340a.0.2, ]
New "Transformer.t5321874a" XfmrCode=CT25 buses=[l2764412.1, x2764412a.1.0, x2764412a.0.2, ]
New "Transformer.t226029836a" XfmrCode=CT15 buses=[l3251808.1, x3251808a.1.0, x3251808a.0.2, ]
New "Transformer.t5321880a" XfmrCode=CT15 buses=[l2876812.1, x2876812a.1.0, x2876812a.0.2, ]
New "Transformer.t5321881a" XfmrCode=CT25 buses=[l2970811.1, x2970811a.1.0, x2970811a.0.2, ]
New "Transformer.t225897846a" XfmrCode=CT15 buses=[l3120504.1, x3120504a.1.0, x3120504a.0.2, ]
New "Transformer.t227903012a" XfmrCode=CT25 buses=[l3177894.1, x3177894a.1.0, x3177894a.0.2, ]
New "Transformer.t226159329a" XfmrCode=CT25 buses=[l3082993.1, x3082993a.1.0, x3082993a.0.2, ]
New "Transformer.t2223661373a" XfmrCode=CT25 buses=[l3312692.1, x3312692a.1.0, x3312692a.0.2, ]
New "Transformer.t225991691a" XfmrCode=CT15 buses=[l2989571.1, x2989571a.1.0, x2989571a.0.2, ]
New "Transformer.t225869139a" XfmrCode=CT15 buses=[l3120503.1, x3120503a.1.0, x3120503a.0.2, ]
New "Transformer.t225673440a" XfmrCode=CT25 buses=[l3251807.1, x3251807a.1.0, x3251807a.0.2, ]
New "Transformer.t225668688a" XfmrCode=CT15 buses=[l2858175.1, x2858175a.1.0, x2858175a.0.2, ]
New "Transformer.t5321159a" XfmrCode=CT15 buses=[l3008248.1, x3008248a.1.0, x3008248a.0.2, ]
New "Transformer.t225901711a" XfmrCode=CT15 buses=[l3195327.1, x3195327a.1.0, x3195327a.0.2, ]
New "Transformer.t225767272a" XfmrCode=CT25 buses=[l3139103.1, x3139103a.1.0, x3139103a.0.2, ]
New "Transformer.t5321878a" XfmrCode=CT25 buses=[l3101788.1, x3101788a.1.0, x3101788a.0.2, ]
New "Transformer.t5321877a" XfmrCode=CT25 buses=[l3101787.1, x3101787a.1.0, x3101787a.0.2, ]
New "Transformer.t5321876a" XfmrCode=CT15 buses=[l3027132.1, x3027132a.1.0, x3027132a.0.2, ]
New "Transformer.t227905262a" XfmrCode=CT25 buses=[l3140238.1, x3140238a.1.0, x3140238a.0.2, ]
New "Transformer.t226109079a" XfmrCode=CT37 buses=[l2726983.1, x2726983a.1.0, x2726983a.0.2, ]
New "Transformer.t5321861c" XfmrCode=CT15 buses=[l3235248.3, x3235248c.1.0, x3235248c.0.2, ]
New "Transformer.t5321883c" XfmrCode=CT15 buses=[l3010564.3, x3010564c.1.0, x3010564c.0.2, ]
New "Transformer.t5321884c" XfmrCode=CT37 buses=[l2710515.3, x2710515c.1.0, x2710515c.0.2, ]
New "Transformer.t5321886c" XfmrCode=CT25 buses=[l2766746.3, x2766746c.1.0, x2766746c.0.2, ]
New "Transformer.t5321890c" XfmrCode=CT37 buses=[l3104118.3, x3104118c.1.0, x3104118c.0.2, ]
New "Transformer.t5321891c" XfmrCode=CT25 buses=[l2748126.3, x2748126c.1.0, x2748126c.0.2, ]
New "Transformer.t5321892c" XfmrCode=CT25 buses=[l3235267.3, x3235267c.1.0, x3235267c.0.2, ]
New "Transformer.t5321893c" XfmrCode=CT25 buses=[l2841645.3, x2841645c.1.0, x2841645c.0.2, ]
New "Transformer.t5321894c" XfmrCode=CT25 buses=[l3066829.3, x3066829c.1.0, x3066829c.0.2, ]
New "Transformer.t28099529c" XfmrCode=CT25 buses=[l3235268.3, x3235268c.1.0, x3235268c.0.2, ]
New "Transformer.t5321888c" XfmrCode=CT25 buses=[l3235241.3, x3235241c.1.0, x3235241c.0.2, ]
New "Transformer.t5321887c" XfmrCode=CT25 buses=[l2691941.3, x2691941c.1.0, x2691941c.0.2, ]
New "Transformer.t21455388c" XfmrCode=CT37 buses=[l2879089.3, x2879089c.1.0, x2879089c.0.2, ]
New "Transformer.t5321882c" XfmrCode=CT25 buses=[l2916607.3, x2916607c.1.0, x2916607c.0.2, ]
New "Transformer.t28127319b" XfmrCode=CT25 buses=[l2766744.2, x2766744b.1.0, x2766744b.0.2, ]
New "Transformer.t21426205b" XfmrCode=CT25 buses=[l2731712.2, x2731712b.1.0, x2731712b.0.2, ]
New "Transformer.t5321860b" XfmrCode=CT25 buses=[l2785543.2, x2785543b.1.0, x2785543b.0.2, ]
New "Transformer.t21451973b" XfmrCode=CT15 buses=[l3010580.2, x3010580b.1.0, x3010580b.0.2, ]
New "Transformer.t5321858b" XfmrCode=CT15 buses=[l3122815.2, x3122815b.1.0, x3122815b.0.2, ]
New "Transformer.t21452406b" XfmrCode=CT25 buses=[l3216361.2, x3216361b.1.0, x3216361b.0.2, ]
New "Transformer.t5321851b" XfmrCode=CT15 buses=[l2729434.2, x2729434b.1.0, x2729434b.0.2, ]
New "Transformer.t5321849b" XfmrCode=CT15 buses=[l2748152.2, x2748152b.1.0, x2748152b.0.2, ]
New "Transformer.t2224192013a" XfmrCode=CT15 buses=[l3632979.1, x3632979a.1.0, x3632979a.0.2, ]
New "Transformer.t5356065b" XfmrCode=CT15 buses=[l3104124.2, x3104124b.1.0, x3104124b.0.2, ]
New "Transformer.t5356064b" XfmrCode=CT25 buses=[l2935556.2, x2935556b.1.0, x2935556b.0.2, ]
New "Transformer.t5321841b" XfmrCode=CT25 buses=[l2954347.2, x2954347b.1.0, x2954347b.0.2, ]
New "Transformer.t226192493b" XfmrCode=CT15 buses=[l2764399.2, x2764399b.1.0, x2764399b.0.2, ]
New "Transformer.t226192492b" XfmrCode=CT10 buses=[l3008232.2, x3008232b.1.0, x3008232b.0.2, ]
New "Transformer.t5441311a" XfmrCode=CT25 buses=[l2766720.1, x2766720a.1.0, x2766720a.0.2, ]
New "Transformer.t5355768b" XfmrCode=CT25 buses=[l2729408.2, x2729408b.1.0, x2729408b.0.2, ]
New "Transformer.t5355777b" XfmrCode=CT25 buses=[l3085398.2, x3085398b.1.0, x3085398b.0.2, ]
New "Transformer.t5355780b" XfmrCode=CT25 buses=[l3160102.2, x3160102b.1.0, x3160102b.0.2, ]
New "Transformer.t225806974a" XfmrCode=CT10 buses=[l2876814.1, x2876814a.1.0, x2876814a.0.2, ]
New "Transformer.t5355375a" XfmrCode=CT25 buses=[l2689691.1, x2689691a.1.0, x2689691a.0.2, ]
New "Transformer.t5355359b" XfmrCode=CT15 buses=[l2766730.2, x2766730b.1.0, x2766730b.0.2, ]
New "Transformer.t5355358b" XfmrCode=CT10 buses=[l2673322.2, x2673322b.1.0, x2673322b.0.2, ]
New "Transformer.t227989724b" XfmrCode=CT25 buses=[l2859391.2, x2859391b.1.0, x2859391b.0.2, ]
New "Transformer.t5355376b" XfmrCode=CT10 buses=[l2914323.2, x2914323b.1.0, x2914323b.0.2, ]
New "Transformer.t5294845a" XfmrCode=CT15 buses=[l3010563.1, x3010563a.1.0, x3010563a.0.2, ]
New "Transformer.t5294844a" XfmrCode=CT15 buses=[l2841623.1, x2841623a.1.0, x2841623a.0.2, ]
New "Transformer.t5391991a" XfmrCode=CT15 buses=[l3216346.1, x3216346a.1.0, x3216346a.0.2, ]
New "Transformer.t5391990a" XfmrCode=CT15 buses=[l2858163.1, x2858163a.1.0, x2858163a.0.2, ]
New "Transformer.t5391989a" XfmrCode=CT25 buses=[l2766747.1, x2766747a.1.0, x2766747a.0.2, ]
New "Transformer.t227902981a" XfmrCode=CT37 buses=[l3047058.1, x3047058a.1.0, x3047058a.0.2, ]
New "Transformer.t227921416a" XfmrCode=CT25 buses=[l3065696.1, x3065696a.1.0, x3065696a.0.2, ]
New "Transformer.t5391992a" XfmrCode=CT25 buses=[l3029500.1, x3029500a.1.0, x3029500a.0.2, ]
New "Transformer.t21397721a" XfmrCode=CT15 buses=[l3178976.1, x3178976a.1.0, x3178976a.0.2, ]
New "Transformer.t21397304a" XfmrCode=CT15 buses=[l2973169.1, x2973169a.1.0, x2973169a.0.2, ]
New "Transformer.t5391993a" XfmrCode=CT10 buses=[l3156034.1, x3156034a.1.0, x3156034a.0.2, ]
New "Transformer.t5391994a" XfmrCode=CT25 buses=[l3066821.1, x3066821a.1.0, x3066821a.0.2, ]
New "Transformer.t5391995a" XfmrCode=CT25 buses=[l2748140.1, x2748140a.1.0, x2748140a.0.2, ]
New "Transformer.t5391996a" XfmrCode=CT15 buses=[l3141412.1, x3141412a.1.0, x3141412a.0.2, ]
New "Transformer.t5294843a" XfmrCode=CT25 buses=[l3178982.1, x3178982a.1.0, x3178982a.0.2, ]
New "Transformer.t5294842a" XfmrCode=CT25 buses=[l3101789.1, x3101789a.1.0, x3101789a.0.2, ]
New "Transformer.t5355438c" XfmrCode=CT25 buses=[l2673323.3, x2673323c.1.0, x2673323c.0.2, ]
New "Transformer.t5355437c" XfmrCode=CT25 buses=[l2710525.3, x2710525c.1.0, x2710525c.0.2, ]
New "Transformer.t227653310c" XfmrCode=CT25 buses=[l2746587.3, x2746587c.1.0, x2746587c.0.2, ]
New "Transformer.t5355433c" XfmrCode=CT50 buses=[l2991933.3, x2991933c.1.0, x2991933c.0.2, ]
New "Transformer.t5355432c" XfmrCode=CT37 buses=[l3122837.3, x3122837c.1.0, x3122837c.0.2, ]
New "Transformer.t5355431c" XfmrCode=CT37 buses=[l3048222.3, x3048222c.1.0, x3048222c.0.2, ]
New "Transformer.t5355584b" XfmrCode=CT25 buses=[l2710542.2, x2710542b.1.0, x2710542b.0.2, ]
New "Transformer.t21248901b" XfmrCode=CT25 buses=[l2729430.2, x2729430b.1.0, x2729430b.0.2, ]
New "Transformer.t5355585b" XfmrCode=CT15 buses=[l2766742.2, x2766742b.1.0, x2766742b.0.2, ]
New "Transformer.t5355586b" XfmrCode=CT25 buses=[l3254234.2, x3254234b.1.0, x3254234b.0.2, ]
New "Transformer.t5355587b" XfmrCode=CT25 buses=[l3104114.2, x3104114b.1.0, x3104114b.0.2, ]
New "Transformer.t5355588b" XfmrCode=CT15 buses=[l2822857.2, x2822857b.1.0, x2822857b.0.2, ]
New "Transformer.t5355589b" XfmrCode=CT25 buses=[l2691939.2, x2691939b.1.0, x2691939b.0.2, ]
New "Transformer.t5355590b" XfmrCode=CT15 buses=[l2860478.2, x2860478b.1.0, x2860478b.0.2, ]
New "Transformer.t5355591b" XfmrCode=CT25 buses=[l2822858.2, x2822858b.1.0, x2822858b.0.2, ]
New "Transformer.t5355618b" XfmrCode=CT25 buses=[l2954338.2, x2954338b.1.0, x2954338b.0.2, ]
New "Transformer.t5355592b" XfmrCode=CT25 buses=[l3254206.2, x3254206b.1.0, x3254206b.0.2, ]
New "Transformer.t5355596b" XfmrCode=CT15 buses=[l3178969.2, x3178969b.1.0, x3178969b.0.2, ]
New "Transformer.t5355597b" XfmrCode=CT15 buses=[l2729401.2, x2729401b.1.0, x2729401b.0.2, ]
New "Transformer.t5355603b" XfmrCode=CT37 buses=[l3160108.2, x3160108b.1.0, x3160108b.0.2, ]
New "Transformer.t5355606b" XfmrCode=CT15 buses=[l3029510.2, x3029510b.1.0, x3029510b.0.2, ]
New "Transformer.t5355605b" XfmrCode=CT25 buses=[l2729409.2, x2729409b.1.0, x2729409b.0.2, ]
New "Transformer.t5355604b" XfmrCode=CT15 buses=[l2841624.2, x2841624b.1.0, x2841624b.0.2, ]
New "Transformer.t5355607b" XfmrCode=CT25 buses=[l2991927.2, x2991927b.1.0, x2991927b.0.2, ]
New "Transformer.t21400108b" XfmrCode=CT15 buses=[l2748139.2, x2748139b.1.0, x2748139b.0.2, ]
New "Transformer.t5355602b" XfmrCode=CT15 buses=[l3251806.2, x3251806b.1.0, x3251806b.0.2, ]
New "Transformer.t5355598b" XfmrCode=CT25 buses=[l2804245.2, x2804245b.1.0, x2804245b.0.2, ]
New "Transformer.t226191995b" XfmrCode=CT15 buses=[l2801896.2, x2801896b.1.0, x2801896b.0.2, ]
New "Transformer.t5355601b" XfmrCode=CT15 buses=[l2673326.2, x2673326b.1.0, x2673326b.0.2, ]
New "Transformer.t5355600b" XfmrCode=CT25 buses=[l2691938.2, x2691938b.1.0, x2691938b.0.2, ]
New "Transformer.t5355599b" XfmrCode=CT25 buses=[l3216338.2, x3216338b.1.0, x3216338b.0.2, ]
New "Transformer.t28118903b" XfmrCode=CT25 buses=[l2973146.2, x2973146b.1.0, x2973146b.0.2, ]
New "Transformer.t5354851b" XfmrCode=CT25 buses=[l2991901.2, x2991901b.1.0, x2991901b.0.2, ]
New "Transformer.t225571871b" XfmrCode=CT15 buses=[l2911069.2, x2911069b.1.0, x2911069b.0.2, ]
New "Transformer.t225571845b" XfmrCode=CT15 buses=[l2948732.2, x2948732b.1.0, x2948732b.0.2, ]
New "Transformer.t225684682b" XfmrCode=CT15 buses=[l3231269.2, x3231269b.1.0, x3231269b.0.2, ]
New "Transformer.t5355595b" XfmrCode=CT10 buses=[l2860479.2, x2860479b.1.0, x2860479b.0.2, ]
New "Transformer.t2223664050b" XfmrCode=CT15 buses=[l3315860.2, x3315860b.1.0, x3315860b.0.2, ]
New "Transformer.t5355593b" XfmrCode=CT15 buses=[l2766715.2, x2766715b.1.0, x2766715b.0.2, ]
New "Transformer.t227896008c" XfmrCode=CT25 buses=[l3177881.3, x3177881c.1.0, x3177881c.0.2, ]
New "Transformer.t28120183c" XfmrCode=CT25 buses=[l3122818.3, x3122818c.1.0, x3122818c.0.2, ]
New "Transformer.t225533531a" XfmrCode=CT25 buses=[l2685805.1, x2685805a.1.0, x2685805a.0.2, ]
New "Transformer.t5355779c" XfmrCode=CT15 buses=[l3122817.3, x3122817c.1.0, x3122817c.0.2, ]
New "Transformer.t5355778c" XfmrCode=CT10 buses=[l2673314.3, x2673314c.1.0, x2673314c.0.2, ]
New "Transformer.t5355773a" XfmrCode=CT25 buses=[l2991909.1, x2991909a.1.0, x2991909a.0.2, ]
New "Transformer.t21396867a" XfmrCode=CT25 buses=[l2710536.1, x2710536a.1.0, x2710536a.0.2, ]
New "Transformer.t21470326a" XfmrCode=CT15 buses=[l2766748.1, x2766748a.1.0, x2766748a.0.2, ]
New "Transformer.t21396959a" XfmrCode=CT25 buses=[l3197638.1, x3197638a.1.0, x3197638a.0.2, ]
New "Transformer.t21397005a" XfmrCode=CT37 buses=[l2935557.1, x2935557a.1.0, x2935557a.0.2, ]
New "Transformer.t21397029a" XfmrCode=CT25 buses=[l2673311.1, x2673311a.1.0, x2673311a.0.2, ]
New "Transformer.t5355842a" XfmrCode=CT25 buses=[l2876813.1, x2876813a.1.0, x2876813a.0.2, ]
New "Transformer.t21399809a" XfmrCode=CT15 buses=[l2785531.1, x2785531a.1.0, x2785531a.0.2, ]
New "Transformer.t21399826a" XfmrCode=CT25 buses=[l3216358.1, x3216358a.1.0, x3216358a.0.2, ]
New "Transformer.t21399762a" XfmrCode=CT15 buses=[l2879087.1, x2879087a.1.0, x2879087a.0.2, ]
New "Transformer.t21399707a" XfmrCode=CT25 buses=[l3141403.1, x3141403a.1.0, x3141403a.0.2, ]
New "Transformer.t226101460a" XfmrCode=CT15 buses=[l2857591.1, x2857591a.1.0, x2857591a.0.2, ]
New "Transformer.t226101449a" XfmrCode=CT25 buses=[l3027133.1, x3027133a.1.0, x3027133a.0.2, ]
New "Transformer.t21483138a" XfmrCode=CT15 buses=[l3122847.1, x3122847a.1.0, x3122847a.0.2, ]
New "Transformer.t21399752a" XfmrCode=CT25 buses=[l2785546.1, x2785546a.1.0, x2785546a.0.2, ]
New "Transformer.t226196642a" XfmrCode=CT5 buses=[l2914324.1, x2914324a.1.0, x2914324a.0.2, ]
New "Transformer.t5294810a" XfmrCode=CT37 buses=[l3010585.1, x3010585a.1.0, x3010585a.0.2, ]
New "Transformer.t5294809a" XfmrCode=CT15 buses=[l2952014.1, x2952014a.1.0, x2952014a.0.2, ]
New "Transformer.t5294812a" XfmrCode=CT15 buses=[l3120502.1, x3120502a.1.0, x3120502a.0.2, ]
New "Transformer.t5294789a" XfmrCode=CT25 buses=[l2895461.1, x2895461a.1.0, x2895461a.0.2, ]
New "Transformer.t5294788a" XfmrCode=CT37 buses=[l2821010.1, x2821010a.1.0, x2821010a.0.2, ]
New "Transformer.t21399630a" XfmrCode=CT15 buses=[l3233353.1, x3233353a.1.0, x3233353a.0.2, ]
...