Test_Systems/IEEE_8500_Bus-G/sub/Loads.dss
New "Load.226195333c0" phases=2 bus1=sx2801909c.1.2 kV=0.208 status=variable model=1 conn=wye kW=4.07 pf=0.97 Vminpu=.88
New "Load.223658a0" phases=2 bus1=sx2823592a.1.2 kV=0.208 status=variable model=1 conn=wye kW=1.77 pf=0.97 Vminpu=.88
New "Load.223660c0" phases=2 bus1=sx3160863c.1.2 kV=0.208 status=variable model=1 conn=wye kW=6.1 pf=0.97 Vminpu=.88
New "Load.223661c0" phases=2 bus1=sx2730108c.1.2 kV=0.208 status=variable model=1 conn=wye kW=6.1 pf=0.97 Vminpu=.88
New "Load.223662c0" phases=2 bus1=sx2786204c.1.2 kV=0.208 status=variable model=1 conn=wye kW=15.26 pf=0.97 Vminpu=.88
New "Load.223663c0" phases=2 bus1=sx2936216c.1.2 kV=0.208 status=variable model=1 conn=wye kW=4.07 pf=0.97 Vminpu=.88
New "Load.346639c0" phases=2 bus1=sx2992556c.1.2 kV=0.208 status=variable model=1 conn=wye kW=6.1 pf=0.97 Vminpu=.88
New "Load.251867c0" phases=2 bus1=sx2861157c.1.2 kV=0.208 status=variable model=1 conn=wye kW=10.17 pf=0.97 Vminpu=.88
New "Load.227411655c0" phases=2 bus1=sx2806553c.1.2 kV=0.208 status=variable model=1 conn=wye kW=10.17 pf=0.97 Vminpu=.88
New "Load.251865c0" phases=2 bus1=sx3142050c.1.2 kV=0.208 status=variable model=1 conn=wye kW=6.1 pf=0.97 Vminpu=.88
New "Load.251862c0" phases=2 bus1=sx3254873c.1.2 kV=0.208 status=variable model=1 conn=wye kW=6.1 pf=0.97 Vminpu=.88
New "Load.251863c0" phases=2 bus1=sx2745811c.1.2 kV=0.208 status=variable model=1 conn=wye kW=10.17 pf=0.97 Vminpu=.88
New "Load.226195194c0" phases=2 bus1=sx3027124c.1.2 kV=0.208 status=variable model=1 conn=wye kW=10.17 pf=0.97 Vminpu=.88
New "Load.2128517c0" phases=2 bus1=sx3048890c.1.2 kV=0.208 status=variable model=1 conn=wye kW=10.17 pf=0.97 Vminpu=.88
New "Load.2128464c0" phases=2 bus1=sx3048889c.1.2 kV=0.208 status=variable model=1 conn=wye kW=10.17 pf=0.97 Vminpu=.88
New "Load.251859c0" phases=2 bus1=sx2952007c.1.2 kV=0.208 status=variable model=1 conn=wye kW=10.17 pf=0.97 Vminpu=.88
New "Load.251858c0" phases=2 bus1=sx2861158c.1.2 kV=0.208 status=variable model=1 conn=wye kW=10.17 pf=0.97 Vminpu=.88
New "Load.251857c0" phases=2 bus1=sx3064514c.1.2 kV=0.208 status=variable model=1 conn=wye kW=6.1 pf=0.97 Vminpu=.88
New "Load.251856c0" phases=2 bus1=sx3048888c.1.2 kV=0.208 status=variable model=1 conn=wye kW=6.1 pf=0.97 Vminpu=.88
New "Load.226010605c0" phases=2 bus1=sx2764411c.1.2 kV=0.208 status=variable model=1 conn=wye kW=6.1 pf=0.97 Vminpu=.88
New "Load.356791c0" phases=2 bus1=sx2767343c.1.2 kV=0.208 status=variable model=1 conn=wye kW=15.26 pf=0.97 Vminpu=.88
New "Load.356790c0" phases=2 bus1=sx2804957c.1.2 kV=0.208 status=variable model=1 conn=wye kW=4.07 pf=0.97 Vminpu=.88
New "Load.356789c0" phases=2 bus1=sx3048937c.1.2 kV=0.208 status=variable model=1 conn=wye kW=6.1 pf=0.97 Vminpu=.88
New "Load.356788c0" phases=2 bus1=sx3176661c.1.2 kV=0.208 status=variable model=1 conn=wye kW=4.07 pf=0.97 Vminpu=.88
New "Load.356787c0" phases=2 bus1=sx2970804c.1.2 kV=0.208 status=variable model=1 conn=wye kW=10.17 pf=0.97 Vminpu=.88
New "Load.225533423c0" phases=2 bus1=sx2891575c.1.2 kV=0.208 status=variable model=1 conn=wye kW=6.1 pf=0.97 Vminpu=.88
New "Load.21386442c0" phases=2 bus1=sx3179637c.1.2 kV=0.208 status=variable model=1 conn=wye kW=15.26 pf=0.97 Vminpu=.88
New "Load.228314460c0" phases=2 bus1=sx3253570c.1.2 kV=0.208 status=variable model=1 conn=wye kW=10.17 pf=0.97 Vminpu=.88
New "Load.227411650c0" phases=2 bus1=sx2937757c.1.2 kV=0.208 status=variable model=1 conn=wye kW=10.17 pf=0.97 Vminpu=.88
New "Load.262075c0" phases=2 bus1=sx3067448c.1.2 kV=0.208 status=variable model=1 conn=wye kW=10.17 pf=0.97 Vminpu=.88
New "Load.225906836c0" phases=2 bus1=sx2763407c.1.2 kV=0.208 status=variable model=1 conn=wye kW=10.17 pf=0.97 Vminpu=.88
New "Load.223655c0" phases=2 bus1=sx2936268c.1.2 kV=0.208 status=variable model=1 conn=wye kW=6.1 pf=0.97 Vminpu=.88
New "Load.21386877a0" phases=2 bus1=sx2823611a.1.2 kV=0.208 status=variable model=1 conn=wye kW=5.32 pf=0.97 Vminpu=.88
New "Load.20107636a0" phases=2 bus1=sx3030204a.1.2 kV=0.208 status=variable model=1 conn=wye kW=8.87 pf=0.97 Vminpu=.88
New "Load.226264795a0" phases=2 bus1=sx3139366a.1.2 kV=0.208 status=variable model=1 conn=wye kW=8.87 pf=0.97 Vminpu=.88
New "Load.227944551c0" phases=2 bus1=sx3234149c.1.2 kV=0.208 status=fixed model=1 conn=wye kW=101.7 pf=0.97 Vminpu=.88
New "Load.227944551b0" phases=2 bus1=sx3234149b.1.2 kV=0.208 status=fixed model=1 conn=wye kW=97.26 pf=0.97 Vminpu=.88
New "Load.227944551a0" phases=2 bus1=sx3234149a.1.2 kV=0.208 status=fixed model=1 conn=wye kW=88.68 pf=0.97 Vminpu=.88
New "Load.260461b0" phases=2 bus1=sx2861223b.1.2 kV=0.208 status=variable model=1 conn=wye kW=9.73 pf=0.97 Vminpu=.88
New "Load.2129466c0" phases=2 bus1=sx3011293c.1.2 kV=0.208 status=variable model=1 conn=wye kW=20.34 pf=0.97 Vminpu=.88
New "Load.2129466b0" phases=2 bus1=sx3011293b.1.2 kV=0.208 status=variable model=1 conn=wye kW=19.45 pf=0.97 Vminpu=.88
...