Test_Systems/IEEE_8500_Bus-G/ieee8500_VLN_elem.Txt

NODE-GROUND VOLTAGES BY CIRCUIT ELEMENT

Power Delivery Elements

Bus                  (node ref)  Phase    Magnitude, kV (pu)    Angle

ELEMENT = "Vsource.SOURCE"
SOURCEBUS             (  1)    1           69.715 (    1.05) /_    0.0
SOURCEBUS             (  2)    2           69.715 (    1.05) /_ -120.0
SOURCEBUS             (  3)    3           69.715 (    1.05) /_  120.0
------------
SOURCEBUS             (  0)    0                0 (       0) /_    0.0
SOURCEBUS             (  0)    0                0 (       0) /_    0.0
SOURCEBUS             (  0)    0                0 (       0) /_    0.0

ELEMENT = "Reactor.HVMV_SUB_HSB"
SOURCEBUS             (  1)    1           69.715 (    1.05) /_    0.0
SOURCEBUS             (  2)    2           69.715 (    1.05) /_ -120.0
SOURCEBUS             (  3)    3           69.715 (    1.05) /_  120.0
------------
HVMV_SUB_HSB          (  4)    1           69.581 (   1.048) /_   -0.7
HVMV_SUB_HSB          (  5)    2           69.621 (   1.049) /_ -120.7
HVMV_SUB_HSB          (  6)    3           69.664 (   1.049) /_  119.3

ELEMENT = "Line.HVMV_SUB_CONNECTOR"
_HVMV_SUB_LSB         (  7)    1           7.5546 (   1.049) /_  -34.4
_HVMV_SUB_LSB         (  8)    2           7.5432 (   1.048) /_ -154.2
_HVMV_SUB_LSB         (  9)    3            7.562 (    1.05) /_   86.0
------------
HVMV_SUB_48332        ( 10)    1           7.5546 (   1.049) /_  -34.4
HVMV_SUB_48332        ( 11)    2           7.5432 (   1.048) /_ -154.2
HVMV_SUB_48332        ( 12)    3            7.562 (    1.05) /_   86.0

ELEMENT = "Line.LN5710794-3"
HVMV_SUB_48332        ( 10)    1           7.5546 (   1.049) /_  -34.4
HVMV_SUB_48332        ( 11)    2           7.5432 (   1.048) /_ -154.2
HVMV_SUB_48332        ( 12)    3            7.562 (    1.05) /_   86.0
------------
D5710794-3_INT        ( 13)    1           7.5522 (   1.049) /_  -34.5
D5710794-3_INT        ( 14)    2           7.5412 (   1.047) /_ -154.3
D5710794-3_INT        ( 15)    3           7.5612 (    1.05) /_   85.9

ELEMENT = "Line.A8735_48332_SW"
D5710794-3_INT        ( 13)    1           7.5522 (   1.049) /_  -34.5
D5710794-3_INT        ( 14)    2           7.5412 (   1.047) /_ -154.3
D5710794-3_INT        ( 15)    3           7.5612 (    1.05) /_   85.9
------------
E192860               ( 16)    1           7.5516 (   1.049) /_  -34.5
E192860               ( 17)    2           7.5406 (   1.047) /_ -154.3
E192860               ( 18)    3           7.5607 (    1.05) /_   85.9

ELEMENT = "Line.LN5815900-1"
E192860               ( 16)    1           7.5516 (   1.049) /_  -34.5
E192860               ( 17)    2           7.5406 (   1.047) /_ -154.3
E192860               ( 18)    3           7.5607 (    1.05) /_   85.9
------------
M1209817              ( 19)    1           7.5492 (   1.049) /_  -34.5
M1209817              ( 20)    2           7.5385 (   1.047) /_ -154.3
M1209817              ( 21)    3           7.5599 (    1.05) /_   85.9

ELEMENT = "Line.LN5742828-1"
M1209817              ( 19)    1           7.5492 (   1.049) /_  -34.5
M1209817              ( 20)    2           7.5385 (   1.047) /_ -154.3
M1209817              ( 21)    3           7.5599 (    1.05) /_   85.9
------------
L2801909              ( 22)    1           7.5461 (   1.048) /_  -34.5
L2801909              ( 23)    2           7.5358 (   1.047) /_ -154.3
L2801909              ( 24)    3           7.5589 (    1.05) /_   85.9

ELEMENT = "Line.TPX226195333C0"
X2801909C             ( 25)    1           0.1252 (   1.043) /_   85.6
X2801909C             ( 26)    2          0.12521 (   1.043) /_  -94.4
------------
SX2801909C            ( 27)    1          0.12495 (   1.041) /_   85.6
SX2801909C            ( 28)    2          0.12496 (   1.041) /_  -94.4

ELEMENT = "Line.LN5742828-2"
L2801909              ( 22)    1           7.5461 (   1.048) /_  -34.5
L2801909              ( 23)    2           7.5358 (   1.047) /_ -154.3
L2801909              ( 24)    3           7.5589 (    1.05) /_   85.9
------------
M1209814              ( 29)    1           7.5376 (   1.047) /_  -34.6
M1209814              ( 30)    2           7.5285 (   1.046) /_ -154.4
M1209814              ( 31)    3           7.5561 (    1.05) /_   85.8

ELEMENT = "Line.LN5473414-1"
M1209814              ( 29)    1           7.5376 (   1.047) /_  -34.6
M1209814              ( 30)    2           7.5285 (   1.046) /_ -154.4
M1209814              ( 31)    3           7.5561 (    1.05) /_   85.8
------------
M1209811              ( 32)    1           7.5245 (   1.045) /_  -34.8
M1209811              ( 33)    2           7.5172 (   1.044) /_ -154.6
M1209811              ( 34)    3           7.5518 (   1.049) /_   85.6

ELEMENT = "Line.LN5714974-1"
M1209811              ( 32)    1           7.5245 (   1.045) /_  -34.8
M1209811              ( 33)    2           7.5172 (   1.044) /_ -154.6
M1209811              ( 34)    3           7.5518 (   1.049) /_   85.6
------------
M1209807              ( 35)    1           7.5096 (   1.043) /_  -35.0
M1209807              ( 36)    2           7.5043 (   1.042) /_ -154.8
M1209807              ( 37)    3            7.547 (   1.048) /_   85.5

ELEMENT = "Line.LN5896798-1"
M1209807              ( 35)    1           7.5096 (   1.043) /_  -35.0
M1209807              ( 36)    2           7.5043 (   1.042) /_ -154.8
M1209807              ( 37)    3            7.547 (   1.048) /_   85.5
------------
M1209805              ( 38)    1           7.5042 (   1.042) /_  -35.0
M1209805              ( 39)    2           7.4997 (   1.042) /_ -154.9
M1209805              ( 40)    3           7.5453 (   1.048) /_   85.4

ELEMENT = "Line.LN5775442-1"
M1209805              ( 38)    1           7.5042 (   1.042) /_  -35.0
M1209805              ( 39)    2           7.4997 (   1.042) /_ -154.9
M1209805              ( 40)    3           7.5453 (   1.048) /_   85.4
------------
L2823592              ( 41)    1           7.4914 (   1.041) /_  -35.2
L2823592              ( 42)    2           7.4886 (    1.04) /_ -155.0
L2823592              ( 43)    3           7.5414 (   1.047) /_   85.3

ELEMENT = "Line.TPX223658A0"
X2823592A             ( 44)    1          0.12417 (   1.034) /_  -35.5
X2823592A             ( 45)    2          0.12418 (   1.034) /_  144.5
------------
SX2823592A            ( 46)    1          0.12406 (   1.033) /_  -35.4
SX2823592A            ( 47)    2          0.12407 (   1.033) /_  144.5

ELEMENT = "Line.CAP_1C"
L2823592              ( 43)    3           7.5414 (   1.047) /_   85.3
------------
L2823592_CAP          ( 48)    3            7.541 (   1.047) /_   85.3

ELEMENT = "Line.LN5513564-2"
L2823592_CAP          ( 49)    1           7.4908 (    1.04) /_  -35.2
L2823592_CAP          ( 50)    2            7.488 (    1.04) /_ -155.0
L2823592_CAP          ( 48)    3            7.541 (   1.047) /_   85.3
------------
R20185                ( 51)    1           7.4853 (    1.04) /_  -35.3
R20185                ( 52)    2           7.4833 (   1.039) /_ -155.1
R20185                ( 53)    3           7.5393 (   1.047) /_   85.2

ELEMENT = "Line.LN5513564-1"
R20185                ( 51)    1           7.4853 (    1.04) /_  -35.3
R20185                ( 52)    2           7.4833 (   1.039) /_ -155.1
R20185                ( 53)    3           7.5393 (   1.047) /_   85.2
------------
D5513564-1_INT        ( 54)    1           7.4824 (   1.039) /_  -35.3
D5513564-1_INT        ( 55)    2           7.4807 (   1.039) /_ -155.1
D5513564-1_INT        ( 56)    3           7.5382 (   1.047) /_   85.2

ELEMENT = "Line.XJ171_48332_SW"
D5513564-1_INT        ( 54)    1           7.4824 (   1.039) /_  -35.3
D5513564-1_INT        ( 55)    2           7.4807 (   1.039) /_ -155.1
D5513564-1_INT        ( 56)    3           7.5382 (   1.047) /_   85.2
------------
E192201               ( 57)    1           7.4818 (   1.039) /_  -35.3
E192201               ( 58)    2           7.4801 (   1.039) /_ -155.1
E192201               ( 59)    3           7.5377 (   1.047) /_   85.2

ELEMENT = "Line.LN6321409-1"
E192201               ( 57)    1           7.4818 (   1.039) /_  -35.3
E192201               ( 58)    2           7.4801 (   1.039) /_ -155.1
E192201               ( 59)    3           7.5377 (   1.047) /_   85.2
------------
M1209800              ( 60)    1           7.4741 (   1.038) /_  -35.4
M1209800              ( 61)    2           7.4734 (   1.038) /_ -155.2
M1209800              ( 62)    3           7.5349 (   1.047) /_   85.1

ELEMENT = "Line.LN5958865-1"
M1209800              ( 62)    3           7.5349 (   1.047) /_   85.1
------------
P829957               ( 63)    3           7.5342 (   1.046) /_   85.1

ELEMENT = "Line.LN5746703-1"
P829957               ( 63)    3           7.5342 (   1.046) /_   85.1
------------
L3160863              ( 64)    3           7.5233 (   1.045) /_   85.1

ELEMENT = "Line.TPX223660C0"
X3160863C             ( 65)    1           0.1246 (   1.038) /_   84.8
X3160863C             ( 66)    2          0.12461 (   1.038) /_  -95.2
------------
SX3160863C            ( 67)    1          0.12423 (   1.035) /_   84.8
SX3160863C            ( 68)    2          0.12424 (   1.035) /_  -95.2

ELEMENT = "Line.LN6201670-1"
L3160863              ( 64)    3           7.5233 (   1.045) /_   85.1
------------
L2730108              ( 69)    3           7.5032 (   1.042) /_   85.0

ELEMENT = "Line.TPX223661C0"
X2730108C             ( 70)    1          0.12427 (   1.035) /_   84.7
X2730108C             ( 71)    2          0.12427 (   1.035) /_  -95.3
------------
SX2730108C            ( 72)    1          0.12389 (   1.032) /_   84.8
SX2730108C            ( 73)    2           0.1239 (   1.032) /_  -95.2

ELEMENT = "Line.LN5896731-1"
L2730108              ( 69)    3           7.5032 (   1.042) /_   85.0
------------
L2786204              ( 74)    3           7.4979 (   1.041) /_   85.0

ELEMENT = "Line.TPX223662C0"
X2786204C             ( 75)    1          0.12417 (   1.034) /_   84.7
X2786204C             ( 76)    2          0.12418 (   1.034) /_  -95.3
------------
SX2786204C            ( 77)    1          0.12324 (   1.026) /_   84.8
SX2786204C            ( 78)    2          0.12325 (   1.026) /_  -95.2

ELEMENT = "Line.LN5589094-1"
L2786204              ( 74)    3           7.4979 (   1.041) /_   85.0
------------
M1209819              ( 79)    3           7.4936 (   1.041) /_   85.0

ELEMENT = "Line.LN5952392-1"
M1209819              ( 79)    3           7.4936 (   1.041) /_   85.0
------------
L2936216              ( 80)    3           7.4907 (    1.04) /_   85.0

ELEMENT = "Line.TPX223663C0"
X2936216C             ( 81)    1          0.12406 (   1.033) /_   84.7
X2936216C             ( 82)    2          0.12406 (   1.033) /_  -95.3
------------
SX2936216C            ( 83)    1          0.12381 (   1.031) /_   84.7
SX2936216C            ( 84)    2          0.12382 (   1.031) /_  -95.3

ELEMENT = "Line.LN5473351-1"
L2936216              ( 80)    3           7.4907 (    1.04) /_   85.0
------------
226-23745             ( 85)    3           7.4852 (    1.04) /_   85.0

ELEMENT = "Line.LN6109068-1"
226-23745             ( 85)    3           7.4852 (    1.04) /_   85.0
------------
M1209822              ( 86)    3            7.455 (   1.035) /_   84.9

ELEMENT = "Line.LN5866186-1"
M1209822              ( 86)    3            7.455 (   1.035) /_   84.9
------------
L2992556              ( 87)    3           7.4549 (   1.035) /_   84.9

ELEMENT = "Line.TPX346639C0"
X2992556C             ( 88)    1          0.12346 (   1.028) /_   84.6
X2992556C             ( 89)    2          0.12346 (   1.028) /_  -95.4
------------
SX2992556C            ( 90)    1          0.12308 (   1.025) /_   84.7
SX2992556C            ( 91)    2          0.12309 (   1.025) /_  -95.3

ELEMENT = "Line.LN6078692-1"
M1209822              ( 86)    3            7.455 (   1.035) /_   84.9
------------
M1209823              ( 92)    3           7.4518 (   1.035) /_   84.9

ELEMENT = "Line.LN5624291-1"
M1209823              ( 92)    3           7.4518 (   1.035) /_   84.9
------------
M1209824              ( 93)    3           7.4481 (   1.035) /_   84.9

ELEMENT = "Line.LN6139544-1"
M1209824              ( 93)    3           7.4481 (   1.035) /_   84.9
------------
M1209828              ( 94)    3           7.4381 (   1.033) /_   84.9

ELEMENT = "Line.LN5775370-1"
M1209828              ( 94)    3           7.4381 (   1.033) /_   84.9
------------
L2861157              ( 95)    3           7.4357 (   1.033) /_   84.9

ELEMENT = "Line.TPX251867C0"
X2861157C             ( 96)    1          0.12313 (   1.025) /_   84.6
X2861157C             ( 97)    2          0.12314 (   1.025) /_  -95.4
------------
SX2861157C            ( 98)    1          0.12251 (    1.02) /_   84.6
SX2861157C            ( 99)    2          0.12251 (    1.02) /_  -95.4

ELEMENT = "Line.LN5594152-1"
L2861157              ( 95)    3           7.4357 (   1.033) /_   84.9
------------
P901951               (100)    3            7.432 (   1.032) /_   84.9

ELEMENT = "Line.LN6078691-1"
P901951               (100)    3            7.432 (   1.032) /_   84.9
------------
M1186078              (101)    3           7.4247 (   1.031) /_   84.9

ELEMENT = "Line.LN6254100-1"
M1186078              (101)    3           7.4247 (   1.031) /_   84.9
------------
L2806553              (102)    3           7.4212 (   1.031) /_   84.9

ELEMENT = "Line.TPX227411655C0"
X2806553C             (103)    1          0.12289 (   1.023) /_   84.5
X2806553C             (104)    2           0.1229 (   1.023) /_  -95.5
------------
SX2806553C            (105)    1          0.12226 (   1.018) /_   84.6
SX2806553C            (106)    2          0.12227 (   1.018) /_  -95.4

ELEMENT = "Line.LN6435650-1"
L2806553              (102)    3           7.4212 (   1.031) /_   84.9
------------
M1166391              (107)    3           7.3965 (   1.027) /_   84.8

ELEMENT = "Line.LN6200442-1"
M1166391              (107)    3           7.3965 (   1.027) /_   84.8
------------
M1166394              (108)    3           7.3964 (   1.027) /_   84.8

ELEMENT = "Line.LN6230698-1"
M1166394              (108)    3           7.3964 (   1.027) /_   84.8
------------
M1166398              (109)    3           7.3963 (   1.027) /_   84.8

ELEMENT = "Line.LN6048526-1"
M1166398              (109)    3           7.3963 (   1.027) /_   84.8
------------
L3142050              (110)    3           7.3962 (   1.027) /_   84.8

ELEMENT = "Line.TPX251865C0"
X3142050C             (111)    1          0.12247 (    1.02) /_   84.5
X3142050C             (112)    2          0.12248 (    1.02) /_  -95.5
------------
SX3142050C            (113)    1          0.12209 (   1.017) /_   84.5
SX3142050C            (114)    2           0.1221 (   1.017) /_  -95.5

ELEMENT = "Line.LN6048523-1"
M1166391              (107)    3           7.3965 (   1.027) /_   84.8
------------
L3254873              (115)    3           7.3925 (   1.027) /_   84.8

ELEMENT = "Line.TPX251862C0"
X3254873C             (116)    1          0.12241 (   1.019) /_   84.5
X3254873C             (117)    2          0.12242 (   1.019) /_  -95.5
------------
SX3254873C            (118)    1          0.12203 (   1.016) /_   84.5
SX3254873C            (119)    2          0.12204 (   1.016) /_  -95.5

ELEMENT = "Line.LN6381766-1"
L3254873              (115)    3           7.3925 (   1.027) /_   84.8
------------
M1166393              (120)    3           7.3913 (   1.027) /_   84.8

ELEMENT = "Line.LN5894226-3"
M1166393              (120)    3           7.3913 (   1.027) /_   84.8
------------
L2745811              (121)    3           7.3909 (   1.027) /_   84.8

ELEMENT = "Line.TPX251863C0"
X2745811C             (122)    1          0.12238 (   1.019) /_   84.5
X2745811C             (123)    2          0.12239 (   1.019) /_  -95.5
------------
SX2745811C            (124)    1          0.12175 (   1.014) /_   84.5
SX2745811C            (125)    2          0.12176 (   1.014) /_  -95.5

ELEMENT = "Line.LN6228316-5"
L2745811              (121)    3           7.3909 (   1.027) /_   84.8
------------
M4122657              (126)    3           7.3907 (   1.027) /_   84.8

ELEMENT = "Line.LN6258460-3"
M4122657              (126)    3           7.3907 (   1.027) /_   84.8
------------
L3027124              (127)    3           7.3903 (   1.026) /_   84.8

ELEMENT = "Line.TPX226195194C0"
X3027124C             (128)    1          0.12237 (   1.019) /_   84.5
X3027124C             (129)    2          0.12238 (   1.019) /_  -95.5
------------
SX3027124C            (130)    1          0.12174 (   1.014) /_   84.5
SX3027124C            (131)    2          0.12175 (   1.014) /_  -95.5

ELEMENT = "Line.LN5717630-1"
M1166393              (120)    3           7.3913 (   1.027) /_   84.8
------------
M1166395              (132)    3           7.3898 (   1.026) /_   84.8

ELEMENT = "Line.LN6142227-1"
M1166395              (132)    3           7.3898 (   1.026) /_   84.8
------------
M1166396              (133)    3           7.3897 (   1.026) /_   84.8

ELEMENT = "Line.LN6324073-1"
M1166396              (133)    3           7.3897 (   1.026) /_   84.8
------------
M1166399              (134)    3           7.3884 (   1.026) /_   84.8

ELEMENT = "Line.LN6200441-1"
M1166399              (134)    3           7.3884 (   1.026) /_   84.8
------------
L3048890              (135)    3           7.3867 (   1.026) /_   84.8

ELEMENT = "Line.TPX28128517C0"
X3048890C             (136)    1          0.12231 (   1.019) /_   84.5
X3048890C             (137)    2          0.12232 (   1.019) /_  -95.5
------------
SX3048890C            (138)    1          0.12168 (   1.013) /_   84.5
SX3048890C            (139)    2          0.12169 (   1.013) /_  -95.5

ELEMENT = "Line.LN6048525-1"
L3048890              (135)    3           7.3867 (   1.026) /_   84.8
------------
M1166402              (140)    3           7.3856 (   1.026) /_   84.8

ELEMENT = "Line.LN5866187-1"
M1166402              (140)    3           7.3856 (   1.026) /_   84.8
------------
L3048889              (141)    3            7.384 (   1.026) /_   84.8

ELEMENT = "Line.TPX28128464C0"
X3048889C             (142)    1          0.12226 (   1.018) /_   84.5
X3048889C             (143)    2          0.12227 (   1.018) /_  -95.5
------------
SX3048889C            (144)    1          0.12163 (   1.013) /_   84.5
SX3048889C            (145)    2          0.12164 (   1.013) /_  -95.5

ELEMENT = "Line.LN6137018-1"
L3048889              (141)    3            7.384 (   1.026) /_   84.8
------------
M1166407              (146)    3           7.3826 (   1.025) /_   84.8

ELEMENT = "Line.LN5985365-1"
M1166407              (146)    3           7.3826 (   1.025) /_   84.8
------------
L2952007              (147)    3           7.3818 (   1.025) /_   84.8

ELEMENT = "Line.TPX251859C0"
X2952007C             (148)    1          0.12223 (   1.018) /_   84.5
X2952007C             (149)    2          0.12224 (   1.018) /_  -95.5
------------
SX2952007C            (150)    1           0.1216 (   1.013) /_   84.5
SX2952007C            (151)    2           0.1216 (   1.013) /_  -95.5

ELEMENT = "Line.LN5894230-1"
L2952007              (147)    3           7.3818 (   1.025) /_   84.8
------------
L2861158              (152)    3           7.3815 (   1.025) /_   84.8

ELEMENT = "Line.TPX251858C0"
X2861158C             (153)    1          0.12222 (   1.018) /_   84.5
X2861158C             (154)    2          0.12223 (   1.018) /_  -95.5
------------
SX2861158C            (155)    1          0.12159 (   1.013) /_   84.5
SX2861158C            (156)    2           0.1216 (   1.013) /_  -95.5

ELEMENT = "Line.LN6318771-1"
M1166407              (146)    3           7.3826 (   1.025) /_   84.8
------------
L3064514              (157)    3           7.3764 (   1.025) /_   84.8

ELEMENT = "Line.TPX251857C0"
X3064514C             (158)    1          0.12214 (   1.017) /_   84.4
X3064514C             (159)    2          0.12215 (   1.017) /_  -95.6
------------
SX3064514C            (160)    1          0.12176 (   1.014) /_   84.5
SX3064514C            (161)    2          0.12177 (   1.014) /_  -95.5

ELEMENT = "Line.LN5591715-1"
L3064514              (157)    3           7.3764 (   1.025) /_   84.8
------------
L3048888              (162)    3           7.3755 (   1.024) /_   84.8

ELEMENT = "Line.TPX251856C0"
X3048888C             (163)    1          0.12212 (   1.017) /_   84.4
X3048888C             (164)    2          0.12213 (   1.017) /_  -95.6
------------
SX3048888C            (165)    1          0.12175 (   1.014) /_   84.5
SX3048888C            (166)    2          0.12175 (   1.014) /_  -95.5

ELEMENT = "Line.LN5591716-1"
L3048888              (162)    3           7.3755 (   1.024) /_   84.8
------------
M1149249              (167)    3            7.374 (   1.024) /_   84.8

ELEMENT = "Line.LN6258463-1"
M1149249              (167)    3            7.374 (   1.024) /_   84.8
------------
M1142880              (168)    3           7.3708 (   1.024) /_   84.7

ELEMENT = "Line.LN5803293-1"
M1142880              (168)    3           7.3708 (   1.024) /_   84.7
------------
L2764411              (169)    3           7.3693 (   1.024) /_   84.7

ELEMENT = "Line.TPX226010605C0"
X2764411C             (170)    1          0.12202 (   1.016) /_   84.4
X2764411C             (171)    2          0.12203 (   1.016) /_  -95.6
------------
SX2764411C            (172)    1          0.12164 (   1.013) /_   84.5
SX2764411C            (173)    2          0.12165 (   1.013) /_  -95.6

ELEMENT = "Line.LN5803293-2"
L2764411              (169)    3           7.3693 (   1.024) /_   84.7
------------
L2767343              (174)    3           7.3687 (   1.023) /_   84.7

ELEMENT = "Line.TPX356791C0"
X2767343C             (175)    1          0.12201 (   1.016) /_   84.4
X2767343C             (176)    2          0.12201 (   1.016) /_  -95.6
------------
SX2767343C            (177)    1          0.12106 (   1.008) /_   84.5
SX2767343C            (178)    2          0.12106 (   1.008) /_  -95.5

ELEMENT = "Line.LN6048524-1"
L2767343              (174)    3           7.3687 (   1.023) /_   84.7
------------
L2804957              (179)    3           7.3683 (   1.023) /_   84.7

ELEMENT = "Line.TPX356790C0"
X2804957C             (180)    1            0.122 (   1.016) /_   84.4
X2804957C             (181)    2          0.12201 (   1.016) /_  -95.6
------------
SX2804957C            (182)    1          0.12175 (   1.014) /_   84.4
SX2804957C            (183)    2          0.12176 (   1.014) /_  -95.6

ELEMENT = "Line.LN5957460-1"
L2804957              (179)    3           7.3683 (   1.023) /_   84.7
------------
L3048937              (184)    3           7.3681 (   1.023) /_   84.7

ELEMENT = "Line.TPX356789C0"
X3048937C             (185)    1            0.122 (   1.016) /_   84.4
X3048937C             (186)    2          0.12201 (   1.016) /_  -95.6
------------
SX3048937C            (187)    1          0.12162 (   1.013) /_   84.4
SX3048937C            (188)    2          0.12163 (   1.013) /_  -95.6

ELEMENT = "Line.LN5651998-1"
L3048937              (184)    3           7.3681 (   1.023) /_   84.7
------------
L3176661              (189)    3           7.3678 (   1.023) /_   84.7

ELEMENT = "Line.TPX356788C0"
X3176661C             (190)    1          0.12199 (   1.016) /_   84.4
X3176661C             (191)    2            0.122 (   1.016) /_  -95.6
------------
SX3176661C            (192)    1          0.12174 (   1.014) /_   84.4
SX3176661C            (193)    2          0.12175 (   1.014) /_  -95.6

ELEMENT = "Line.LN6348954-1"
L3176661              (189)    3           7.3678 (   1.023) /_   84.7
------------
L2970804              (194)    3           7.3676 (   1.023) /_   84.7

ELEMENT = "Line.TPX356787C0"
X2970804C             (195)    1          0.12199 (   1.016) /_   84.4
X2970804C             (196)    2            0.122 (   1.016) /_  -95.6
------------
SX2970804C            (197)    1          0.12136 (   1.011) /_   84.5
SX2970804C            (198)    2          0.12137 (   1.011) /_  -95.5

ELEMENT = "Line.LN5591718-1"
M1142880              (168)    3           7.3708 (   1.024) /_   84.7
------------
L2891575              (199)    3           7.3706 (   1.024) /_   84.7

ELEMENT = "Line.TPX225533423C0"
X2891575C             (200)    1          0.12204 (   1.016) /_   84.4
X2891575C             (201)    2          0.12205 (   1.016) /_  -95.6
------------
SX2891575C            (202)    1          0.12166 (   1.013) /_   84.5
SX2891575C            (203)    2          0.12167 (   1.013) /_  -95.5

ELEMENT = "Line.LN5960126-1"
M1166395              (132)    3           7.3898 (   1.026) /_   84.8
------------
M1166400              (204)    3           7.3896 (   1.026) /_   84.8

ELEMENT = "Line.LN6103754-1"
M1166400              (204)    3           7.3896 (   1.026) /_   84.8
------------
L3179637              (205)    3           7.3894 (   1.026) /_   84.8

ELEMENT = "Line.TPX21386442C0"
X3179637C             (206)    1          0.12235 (   1.019) /_   84.5
X3179637C             (207)    2          0.12236 (   1.019) /_  -95.5
------------
SX3179637C            (208)    1          0.12141 (   1.011) /_   84.5
SX3179637C            (209)    2          0.12141 (   1.011) /_  -95.5

ELEMENT = "Line.LN5873976-1"
M1209828              ( 94)    3           7.4381 (   1.033) /_   84.9
------------
L3253570              (210)    3           7.4378 (   1.033) /_   84.9

ELEMENT = "Line.TPX228314460C0"
X3253570C             (211)    1          0.12317 (   1.026) /_   84.6
X3253570C             (212)    2          0.12317 (   1.026) /_  -95.4
------------
SX3253570C            (213)    1          0.12254 (    1.02) /_   84.6
SX3253570C            (214)    2          0.12255 (    1.02) /_  -95.4

ELEMENT = "Line.LN6359077-2"
L3253570              (210)    3           7.4378 (   1.033) /_   84.9
------------
L2937757              (215)    3           7.4373 (   1.033) /_   84.9

ELEMENT = "Line.TPX227411650C0"
X2937757C             (216)    1          0.12316 (   1.026) /_   84.6
X2937757C             (217)    2          0.12317 (   1.026) /_  -95.4
------------
SX2937757C            (218)    1          0.12253 (    1.02) /_   84.6
SX2937757C            (219)    2          0.12254 (    1.02) /_  -95.4

ELEMENT = "Line.LN6359077-1"
L2937757              (215)    3           7.4373 (   1.033) /_   84.9
------------
L3067448              (220)    3            7.437 (   1.033) /_   84.9

ELEMENT = "Line.TPX262075C0"
X3067448C             (221)    1          0.12315 (   1.026) /_   84.6
X3067448C             (222)    2          0.12316 (   1.026) /_  -95.4
------------
SX3067448C            (223)    1          0.12253 (    1.02) /_   84.6
SX3067448C            (224)    2          0.12254 (    1.02) /_  -95.4

ELEMENT = "Line.LN6073916-1"
L3067448              (220)    3            7.437 (   1.033) /_   84.9
------------
L2763407              (225)    3           7.4365 (   1.033) /_   84.9

ELEMENT = "Line.TPX225906836C0"
X2763407C             (226)    1          0.12315 (   1.025) /_   84.6
X2763407C             (227)    2          0.12315 (   1.026) /_  -95.4
------------
SX2763407C            (228)    1          0.12252 (    1.02) /_   84.6
SX2763407C            (229)    2          0.12253 (    1.02) /_  -95.4

ELEMENT = "Line.LN5654466-1"
M1209800              ( 60)    1           7.4741 (   1.038) /_  -35.4
M1209800              ( 61)    2           7.4734 (   1.038) /_ -155.2
M1209800              ( 62)    3           7.5349 (   1.047) /_   85.1
------------
M1209797              (230)    1           7.4629 (   1.037) /_  -35.5
M1209797              (231)    2           7.4648 (   1.037) /_ -155.4
M1209797              (232)    3           7.5322 (   1.046) /_   85.0

ELEMENT = "Line.LN6291242-1"
M1209797              (230)    1           7.4629 (   1.037) /_  -35.5
M1209797              (231)    2           7.4648 (   1.037) /_ -155.4
M1209797              (232)    3           7.5322 (   1.046) /_   85.0
------------
M1209791              (233)    1            7.453 (   1.035) /_  -35.6
M1209791              (234)    2           7.4572 (   1.036) /_ -155.5
M1209791              (235)    3           7.5298 (   1.046) /_   84.9

ELEMENT = "Line.LN5654472-1"
M1209791              (233)    1            7.453 (   1.035) /_  -35.6
M1209791              (234)    2           7.4572 (   1.036) /_ -155.5
M1209791              (235)    3           7.5298 (   1.046) /_   84.9
------------
M1209790              (236)    1           7.4449 (   1.034) /_  -35.7
M1209790              (237)    2           7.4509 (   1.035) /_ -155.6
M1209790              (238)    3           7.5279 (   1.046) /_   84.9

ELEMENT = "Line.LN5594242-1"
M1209790              (236)    1           7.4449 (   1.034) /_  -35.7
M1209790              (237)    2           7.4509 (   1.035) /_ -155.6
M1209790              (238)    3           7.5279 (   1.046) /_   84.9
------------
M1209788              (239)    1           7.4363 (   1.033) /_  -35.7
M1209788              (240)    2           7.4441 (   1.034) /_ -155.6
M1209788              (241)    3           7.5259 (   1.045) /_   84.8

ELEMENT = "Line.LN6381855-1"
M1209788              (241)    3           7.5259 (   1.045) /_   84.8
------------
M1209795              (242)    3           7.5258 (   1.045) /_   84.8

ELEMENT = "Line.LN6381845-1"
M1209795              (242)    3           7.5258 (   1.045) /_   84.8
------------
L2936268              (243)    3           7.5257 (   1.045) /_   84.8

ELEMENT = "Line.TPX223655C0"
X2936268C             (244)    1          0.12464 (   1.038) /_   84.5
X2936268C             (245)    2          0.12465 (   1.038) /_  -95.5
------------
SX2936268C            (246)    1          0.12427 (   1.035) /_   84.5
...